sad/pglib_opf_case6468_rte__sad.m
%%%%%%%%%%%%%%%%%%%%%%%%%%%%%%%%%%%%%%%%%%%%%%%%%%%%%%%%%%%%%%%%%%%%%%%%%%%
%%%%                                                                  %%%%%
%%%%    IEEE PES Power Grid Library - Optimal Power Flow - v17.08     %%%%%
%%%%          (https://github.com/power-grid-lib/pglib-opf)           %%%%%
%%%%             Benchmark Group - Small Angle Difference             %%%%%
%%%%                        29 - August - 2017                        %%%%%
%%%%                                                                  %%%%%
%%%%%%%%%%%%%%%%%%%%%%%%%%%%%%%%%%%%%%%%%%%%%%%%%%%%%%%%%%%%%%%%%%%%%%%%%%%
function mpc = pglib_opf_case6468_rte__sad
mpc.version = '2';
mpc.baseMVA = 100.0;

%% bus data
%	bus_i	type	Pd	Qd	Gs	Bs	area	Vm	Va	baseKV	zone	Vmax	Vmin
mpc.bus = [
	1	 1	 0.0	 0.0	 0.0	 0.0	 1	    0.94444	    0.00000	 45.0	 1	    1.00000	    0.88889;
	2	 1	 0.0	 0.0	 0.0	 0.0	 1	    1.00000	    0.00000	 63.0	 1	    1.06349	    0.93651;
	3	 1	 11.7	 -1.2	 0.0	 0.0	 1	    1.01588	    0.00000	 63.0	 1	    1.07937	    0.95238;
	4	 1	 33.8	 -8.2	 0.0	 0.0	 1	    1.01111	    0.00000	 90.0	 1	    1.08889	    0.93333;
	5	 1	 11.0	 -0.9	 0.0	 0.0	 1	    1.00794	    0.00000	 63.0	 1	    1.06349	    0.95238;
	6	 1	 13.0	 4.3	 0.0	 0.0	 1	    1.00000	    0.00000	 63.0	 1	    1.07937	    0.92063;
	7	 1	 1.0	 -0.2	 0.0	 0.0	 1	    1.00000	    0.00000	 63.0	 1	    1.07937	    0.92063;
	8	 1	 0.4	 -4.4	 0.0	 0.0	 1	    0.98889	    0.00000	 225.0	 1	    1.08889	    0.88889;
	9	 1	 16.9	 0.0	 0.0	 0.0	 1	    1.00000	    0.00000	 63.0	 1	    1.06349	    0.93651;
	10	 1	 0.0	 0.0	 0.0	 0.0	 1	    1.00000	    0.00000	 90.0	 1	    1.07778	    0.92222;
	11	 1	 20.0	 -3.1	 0.0	 0.0	 1	    1.00000	    0.00000	 90.0	 1	    1.07778	    0.92222;
	12	 1	 0.0	 0.0	 0.0	 0.0	 1	    1.01588	    0.00000	 63.0	 1	    1.07937	    0.95238;
	13	 1	 0.0	 0.0	 0.0	 0.0	 1	    1.07673	    0.00000	 380.0	 1	    1.10263	    1.05084;
	14	 1	 37.0	 3.6	 0.0	 0.0	 1	    1.02778	    0.00000	 90.0	 1	    1.07778	    0.97778;
	15	 1	 0.0	 0.0	 0.0	 0.0	 1	    1.00000	    0.00000	 63.0	 1	    1.07937	    0.92063;
	16	 1	 10.3	 1.5	 0.0	 0.0	 1	    1.00000	    0.00000	 63.0	 1	    1.07937	    0.92063;
	17	 1	 11.2	 -0.6	 0.0	 0.0	 1	    1.02222	    0.00000	 90.0	 1	    1.06667	    0.97778;
	18	 1	 0.0	 0.0	 0.0	 0.0	 1	    0.94444	    0.00000	 45.0	 1	    1.00000	    0.88889;
	19	 1	 1.0	 0.0	 0.0	 0.0	 1	    1.00000	    0.00000	 63.0	 1	    1.06349	    0.93651;
	20	 1	 2.3	 -18.3	 0.0	 0.0	 1	    0.94444	    0.00000	 45.0	 1	    1.00000	    0.88889;
	21	 1	 6.5	 -1.9	 0.0	 0.0	 1	    1.02222	    0.00000	 90.0	 1	    1.06667	    0.97778;
	22	 1	 15.2	 1.4	 0.0	 0.0	 1	    1.01588	    0.00000	 63.0	 1	    1.07937	    0.95238;
	23	 1	 29.1	 4.6	 0.0	 0.0	 1	    1.00000	    0.00000	 63.0	 1	    1.06349	    0.93651;
	24	 1	 9.7	 -2.8	 0.0	 0.0	 1	    1.03333	    0.00000	 90.0	 1	    1.11111	    0.95556;
	25	 1	 46.5	 -6.1	 0.0	 0.0	 1	    1.02222	    0.00000	 90.0	 1	    1.10000	    0.94444;
	26	 1	 20.5	 4.7	 0.0	 0.0	 1	    1.02222	    0.00000	 90.0	 1	    1.06667	    0.97778;
	27	 1	 0.0	 0.0	 0.0	 0.0	 1	    1.04444	    0.00000	 225.0	 1	    1.08444	    1.00444;
	28	 1	 0.4	 0.9	 0.0	 0.0	 1	    1.01588	    0.00000	 63.0	 1	    1.07937	    0.95238;
	29	 1	 52.7	 1.8	 0.0	 0.0	 1	    1.01587	    0.00000	 63.0	 1	    1.06349	    0.96825;
	30	 1	 29.8	 -1.9	 0.0	 0.0	 1	    1.01111	    0.00000	 90.0	 1	    1.08889	    0.93333;
	31	 1	 0.0	 0.0	 0.0	 0.0	 1	    1.00000	    0.00000	 63.0	 1	    1.06349	    0.93651;
	32	 1	 0.0	 0.0	 0.0	 0.0	 1	    1.00334	    0.00000	 150.0	 1	    1.10667	    0.90000;
	33	 1	 0.0	 0.0	 0.0	 0.0	 1	    1.01111	    0.00000	 225.0	 1	    1.08889	    0.93333;
	34	 1	 0.0	 0.0	 0.0	 0.0	 1	    1.01111	    0.00000	 225.0	 1	    1.08889	    0.93333;
	35	 1	 0.0	 0.0	 0.0	 0.0	 1	    1.07237	    0.00000	 380.0	 1	    1.10526	    1.03947;
	36	 1	 0.0	 0.0	 0.0	 0.0	 1	    1.07237	    0.00000	 380.0	 1	    1.10526	    1.03947;
	37	 1	 2.3	 4.4	 0.0	 0.0	 1	    1.00000	    0.00000	 63.0	 1	    1.07937	    0.92063;
	38	 1	 7.0	 -1.0	 0.0	 0.0	 1	    1.01587	    0.00000	 63.0	 1	    1.09524	    0.93651;
	39	 1	 35.0	 -6.8	 0.0	 0.0	 1	    1.02778	    0.00000	 90.0	 1	    1.07778	    0.97778;
	40	 1	 31.7	 0.5	 0.0	 0.0	 1	    1.02778	    0.00000	 90.0	 1	    1.07778	    0.97778;
	41	 1	 0.0	 0.0	 0.0	 0.0	 1	    1.04819	    0.00000	 225.0	 1	    1.09194	    1.00444;
	42	 1	 0.0	 0.0	 0.0	 0.0	 1	    1.04150	    0.00000	 63.0	 1	    1.13061	    0.95238;
	43	 1	 3.4	 2.8	 0.0	 0.0	 1	    1.02778	    0.00000	 90.0	 1	    1.07778	    0.97778;
	44	 1	 12.4	 0.0	 0.0	 0.0	 1	    1.00794	    0.00000	 63.0	 1	    1.06349	    0.95238;
	45	 1	 3.0	 2.1	 0.0	 0.0	 1	    1.02222	    0.00000	 90.0	 1	    1.06667	    0.97778;
	46	 1	 0.0	 0.0	 0.0	 0.0	 1	    1.00000	    0.00000	 63.0	 1	    1.06349	    0.93651;
	47	 2	 0.0	 0.0	 0.0	 0.0	 1	    1.00000	    0.00000	 63.0	 1	    1.06349	    0.93651;
	48	 1	 34.0	 1.3	 0.0	 0.0	 1	    1.00000	    0.00000	 90.0	 1	    1.07778	    0.92222;
	49	 1	 6.9	 -2.5	 0.0	 0.0	 1	    1.00000	    0.00000	 63.0	 1	    1.06349	    0.93651;
	50	 1	 0.0	 0.0	 0.0	 0.0	 1	    1.00543	    0.00000	 63.0	 1	    1.07436	    0.93651;
	51	 1	 0.0	 0.0	 0.0	 0.0	 1	    1.01111	    0.00000	 225.0	 1	    1.08889	    0.93333;
	52	 1	 5.8	 2.5	 0.0	 0.0	 1	    1.02222	    0.00000	 90.0	 1	    1.06667	    0.97778;
	53	 1	 0.2	 -0.3	 0.0	 0.0	 1	    1.00000	    0.00000	 63.0	 1	    1.04762	    0.95238;
	54	 1	 0.9	 -0.8	 0.0	 0.0	 1	    1.02222	    0.00000	 90.0	 1	    1.06667	    0.97778;
	55	 1	 30.1	 5.4	 0.0	 0.0	 1	    1.04666	    0.00000	 225.0	 1	    1.08889	    1.00444;
	56	 1	 42.2	 6.3	 0.0	 0.0	 1	    1.04666	    0.00000	 225.0	 1	    1.08889	    1.00444;
	57	 2	 0.0	 0.0	 0.0	 0.0	 1	    1.00000	    0.00000	 63.0	 1	    1.07937	    0.92063;
	58	 1	 107.6	 28.8	 0.0	 0.0	 1	    1.04666	    0.00000	 225.0	 1	    1.08889	    1.00444;
	59	 1	 5.2	 1.4	 0.0	 0.0	 1	    1.01588	    0.00000	 63.0	 1	    1.07937	    0.95238;
	60	 1	 0.0	 0.0	 0.0	 0.0	 1	    1.01588	    0.00000	 63.0	 1	    1.07937	    0.95238;
	61	 1	 29.6	 5.1	 0.0	 0.0	 1	    1.01588	    0.00000	 63.0	 1	    1.07937	    0.95238;
	62	 1	 0.0	 0.0	 0.0	 0.0	 1	    1.01588	    0.00000	 63.0	 1	    1.07937	    0.95238;
	63	 1	 12.8	 2.0	 0.0	 0.0	 1	    1.01588	    0.00000	 63.0	 1	    1.07937	    0.95238;
	64	 1	 47.2	 -0.7	 0.0	 0.0	 1	    0.98889	    0.00000	 225.0	 1	    1.08889	    0.88889;
	65	 1	 10.0	 2.9	 0.0	 0.0	 1	    1.01588	    0.00000	 63.0	 1	    1.07937	    0.95238;
	66	 1	 11.1	 -9.3	 0.0	 0.0	 1	    1.00000	    0.00000	 63.0	 1	    1.06349	    0.93651;
	67	 1	 0.0	 0.0	 0.0	 0.0	 1	    1.00000	    0.00000	 63.0	 1	    1.07937	    0.92063;
	68	 1	 41.1	 -6.8	 0.0	 0.0	 1	    1.00000	    0.00000	 63.0	 1	    1.06349	    0.93651;
	69	 1	 14.4	 -3.2	 0.0	 0.0	 1	    1.00794	    0.00000	 63.0	 1	    1.06349	    0.95238;
	70	 1	 8.7	 0.6	 0.0	 0.0	 1	    1.01588	    0.00000	 63.0	 1	    1.07937	    0.95238;
	71	 1	 55.8	 10.7	 0.0	 0.0	 1	    1.00000	    0.00000	 63.0	 1	    1.04762	    0.95238;
	72	 1	 0.0	 0.0	 0.0	 0.0	 1	    1.04666	    0.00000	 225.0	 1	    1.08889	    1.00444;
	73	 1	 0.0	 0.0	 0.0	 0.0	 1	    1.04666	    0.00000	 225.0	 1	    1.08889	    1.00444;
	74	 1	 37.1	 -8.7	 0.0	 0.0	 1	    0.98889	    0.00000	 225.0	 1	    1.08889	    0.88889;
	75	 1	 19.3	 1.4	 0.0	 0.0	 1	    1.02301	    0.00000	 90.0	 1	    1.06825	    0.97778;
	76	 1	 6.3	 3.2	 0.0	 0.0	 1	    1.03778	    0.00000	 225.0	 1	    1.08889	    0.98667;
	77	 1	 28.9	 -5.2	 0.0	 0.0	 1	    1.00000	    0.00000	 63.0	 1	    1.06349	    0.93651;
	78	 1	 0.0	 0.0	 0.0	 0.0	 1	    1.00000	    0.00000	 63.0	 1	    1.07937	    0.92063;
	79	 1	 0.0	 0.0	 0.0	 0.0	 1	    1.00000	    0.00000	 63.0	 1	    1.04762	    0.95238;
	80	 1	 26.1	 -1.0	 0.0	 0.0	 1	    1.04666	    0.00000	 225.0	 1	    1.08889	    1.00444;
	81	 1	 26.1	 3.5	 0.0	 0.0	 1	    1.04666	    0.00000	 225.0	 1	    1.08889	    1.00444;
	82	 1	 9.8	 -3.2	 0.0	 0.0	 1	    1.00000	    0.00000	 63.0	 1	    1.06349	    0.93651;
	83	 1	 85.0	 46.2	 0.0	 0.0	 1	    1.04666	    0.00000	 225.0	 1	    1.08889	    1.00444;
	84	 1	 -1.0	 -1.1	 0.0	 0.0	 1	    1.00000	    0.00000	 63.0	 1	    1.06349	    0.93651;
	85	 1	 2.3	 -0.8	 0.0	 0.0	 1	    1.00000	    0.00000	 63.0	 1	    1.06349	    0.93651;
	86	 1	 30.3	 -3.7	 0.0	 0.0	 1	    1.02222	    0.00000	 90.0	 1	    1.06667	    0.97778;
	87	 1	 0.0	 0.0	 0.0	 0.0	 1	    1.01588	    0.00000	 63.0	 1	    1.07937	    0.95238;
	88	 1	 11.5	 -3.8	 0.0	 0.0	 1	    1.00000	    0.00000	 63.0	 1	    1.06349	    0.93651;
	89	 1	 17.7	 -4.9	 0.0	 0.0	 1	    1.02778	    0.00000	 90.0	 1	    1.07778	    0.97778;
	90	 1	 0.7	 -0.3	 0.0	 0.0	 1	    0.94444	    0.00000	 45.0	 1	    1.00000	    0.88889;
	91	 1	 0.0	 0.0	 0.0	 0.0	 1	    0.94444	    0.00000	 45.0	 1	    1.00000	    0.88889;
	92	 1	 24.7	 0.4	 0.0	 0.0	 1	    1.01587	    0.00000	 63.0	 1	    1.06349	    0.96825;
	93	 1	 2.3	 -2.5	 0.0	 0.0	 1	    0.94444	    0.00000	 45.0	 1	    1.00000	    0.88889;
	94	 1	 13.0	 -4.9	 0.0	 0.0	 1	    1.02222	    0.00000	 90.0	 1	    1.06667	    0.97778;
	95	 1	 38.0	 3.8	 0.0	 0.0	 1	    1.02222	    0.00000	 90.0	 1	    1.06667	    0.97778;
	96	 1	 0.9	 -0.6	 0.0	 0.0	 1	    1.00000	    0.00000	 63.0	 1	    1.06349	    0.93651;
	97	 1	 47.0	 0.8	 0.0	 0.0	 1	    1.00000	    0.00000	 63.0	 1	    1.07937	    0.92063;
	98	 1	 6.6	 -2.2	 0.0	 0.0	 1	    1.01588	    0.00000	 63.0	 1	    1.07937	    0.95238;
	99	 1	 21.9	 3.2	 0.0	 0.0	 1	    1.01588	    0.00000	 63.0	 1	    1.07937	    0.95238;
	100	 1	 46.3	 7.4	 0.0	 0.0	 1	    1.00000	    0.00000	 63.0	 1	    1.06349	    0.93651;
	101	 1	 14.0	 -1.5	 0.0	 0.0	 1	    1.00000	    0.00000	 63.0	 1	    1.06349	    0.93651;
	102	 2	 0.0	 0.0	 0.0	 0.0	 1	    1.01588	    0.00000	 63.0	 1	    1.07937	    0.95238;
	103	 1	 13.2	 -4.0	 0.0	 0.0	 1	    1.01588	    0.00000	 63.0	 1	    1.07937	    0.95238;
	104	 1	 0.0	 0.0	 0.0	 0.0	 1	    1.03778	    0.00000	 225.0	 1	    1.08889	    0.98667;
	105	 1	 28.5	 -1.6	 0.0	 0.0	 1	    0.98889	    0.00000	 225.0	 1	    1.08889	    0.88889;
	106	 1	 38.8	 2.2	 0.0	 0.0	 1	    1.02222	    0.00000	 90.0	 1	    1.10000	    0.94444;
	107	 1	 71.6	 4.9	 0.0	 0.0	 1	    1.04666	    0.00000	 225.0	 1	    1.08444	    1.00889;
	108	 1	 7.9	 -4.6	 0.0	 0.0	 1	    1.02778	    0.00000	 90.0	 1	    1.07778	    0.97778;
	109	 1	 60.6	 7.8	 0.0	 0.0	 1	    1.00000	    0.00000	 63.0	 1	    1.06349	    0.93651;
	110	 1	 0.0	 0.0	 0.0	 0.0	 1	    1.01111	    0.00000	 225.0	 1	    1.08889	    0.93333;
	111	 1	 34.2	 -7.2	 0.0	 0.0	 1	    1.01587	    0.00000	 63.0	 1	    1.06349	    0.96825;
	112	 1	 0.0	 0.0	 0.0	 0.0	 1	    1.00000	    0.00000	 63.0	 1	    1.04762	    0.95238;
	113	 1	 0.0	 0.0	 0.0	 0.0	 1	    1.04666	    0.00000	 225.0	 1	    1.08889	    1.00444;
	114	 1	 11.5	 -1.0	 0.0	 0.0	 1	    1.00000	    0.00000	 63.0	 1	    1.06349	    0.93651;
	115	 1	 0.0	 0.0	 0.0	 0.0	 1	    1.07805	    0.00000	 380.0	 1	    1.10526	    1.05085;
	116	 1	 0.0	 0.0	 0.0	 0.0	 1	    1.07805	    0.00000	 380.0	 1	    1.10526	    1.05085;
	117	 1	 13.2	 -2.2	 0.0	 0.0	 1	    1.01588	    0.00000	 63.0	 1	    1.07937	    0.95238;
	118	 1	 2.0	 0.8	 0.0	 0.0	 1	    1.02395	    0.00000	 90.0	 1	    1.07012	    0.97778;
	119	 1	 35.5	 0.7	 0.0	 0.0	 1	    1.00000	    0.00000	 63.0	 1	    1.06349	    0.93651;
	120	 1	 29.9	 -1.3	 0.0	 0.0	 1	    1.00000	    0.00000	 63.0	 1	    1.06349	    0.93651;
	121	 1	 15.3	 3.7	 0.0	 0.0	 1	    1.00000	    0.00000	 63.0	 1	    1.07937	    0.92063;
	122	 2	 0.0	 0.0	 0.0	 0.0	 1	    1.01588	    0.00000	 63.0	 1	    1.07937	    0.95238;
	123	 1	 9.0	 2.7	 0.0	 0.0	 1	    1.01588	    0.00000	 63.0	 1	    1.07937	    0.95238;
	124	 1	 8.9	 -4.0	 0.0	 0.0	 1	    1.02222	    0.00000	 90.0	 1	    1.06667	    0.97778;
	125	 1	 4.8	 -3.1	 0.0	 0.0	 1	    1.01588	    0.00000	 63.0	 1	    1.07937	    0.95238;
	126	 1	 -0.3	 0.5	 0.0	 0.0	 1	    1.00000	    0.00000	 63.0	 1	    1.06349	    0.93651;
	127	 1	 6.5	 0.4	 0.0	 0.0	 1	    1.00000	    0.00000	 63.0	 1	    1.04762	    0.95238;
	128	 1	 13.9	 5.6	 0.0	 0.0	 1	    1.01587	    0.00000	 63.0	 1	    1.06349	    0.96825;
	129	 1	 18.8	 14.3	 0.0	 0.0	 1	    1.01587	    0.00000	 63.0	 1	    1.06349	    0.96825;
	130	 1	 0.0	 0.0	 0.0	 0.0	 1	    1.04666	    0.00000	 225.0	 1	    1.08444	    1.00889;
	131	 1	 82.0	 2.0	 0.0	 0.0	 1	    1.04666	    0.00000	 225.0	 1	    1.08444	    1.00889;
	132	 2	 11.9	 0.0	 0.0	 0.0	 1	    1.00000	    0.00000	 90.0	 1	    1.07778	    0.92222;
	133	 1	 1.3	 0.3	 0.0	 0.0	 1	    1.00000	    0.00000	 63.0	 1	    1.04762	    0.95238;
	134	 1	 71.7	 15.7	 0.0	 0.0	 1	    1.04666	    0.00000	 225.0	 1	    1.08889	    1.00444;
	135	 1	 0.0	 0.0	 0.0	 0.0	 1	    1.04666	    0.00000	 225.0	 1	    1.08889	    1.00444;
	136	 1	 18.8	 2.3	 0.0	 0.0	 1	    1.02778	    0.00000	 90.0	 1	    1.07778	    0.97778;
	137	 2	 13.4	 -9.1	 0.0	 0.0	 1	    1.01587	    0.00000	 63.0	 1	    1.06349	    0.96825;
	138	 1	 0.0	 0.0	 0.0	 0.0	 1	    1.02333	    0.00000	 150.0	 1	    1.08000	    0.96667;
	139	 1	 8.6	 -1.0	 0.0	 0.0	 1	    1.00000	    0.00000	 63.0	 1	    1.07937	    0.92063;
	140	 1	 0.0	 0.0	 0.0	 0.0	 1	    1.04445	    0.00000	 225.0	 1	    1.08889	    1.00000;
	141	 1	 0.0	 0.0	 0.0	 0.0	 1	    1.07895	    0.00000	 380.0	 1	    1.10526	    1.05263;
	142	 1	 15.8	 1.3	 0.0	 0.0	 1	    1.01588	    0.00000	 63.0	 1	    1.07937	    0.95238;
	143	 1	 0.0	 0.0	 0.0	 0.0	 1	    1.03778	    0.00000	 225.0	 1	    1.08889	    0.98667;
	144	 1	 0.0	 0.0	 0.0	 -64.0	 1	    0.97500	    0.00000	 20.0	 1	    1.15000	    0.80000;
	145	 1	 21.2	 10.0	 0.0	 0.0	 1	    1.03333	    0.00000	 90.0	 1	    1.11111	    0.95556;
	146	 1	 25.6	 6.2	 0.0	 0.0	 1	    1.02889	    0.00000	 225.0	 1	    1.08889	    0.96889;
	147	 1	 0.0	 0.0	 0.0	 0.0	 1	    1.05263	    0.00000	 380.0	 1	    1.10526	    1.00000;
	148	 1	 25.0	 3.6	 0.0	 0.0	 1	    1.00000	    0.00000	 63.0	 1	    1.06349	    0.93651;
	149	 1	 6.3	 2.2	 0.0	 0.0	 1	    1.00000	    0.00000	 63.0	 1	    1.06349	    0.93651;
	150	 1	 17.9	 5.1	 0.0	 0.0	 1	    1.02222	    0.00000	 90.0	 1	    1.06667	    0.97778;
	151	 1	 41.9	 5.6	 0.0	 0.0	 1	    1.00000	    0.00000	 63.0	 1	    1.06349	    0.93651;
	152	 1	 0.0	 0.0	 0.0	 0.0	 1	    1.01587	    0.00000	 63.0	 1	    1.06349	    0.96825;
	153	 1	 34.2	 5.9	 0.0	 7.7	 1	    1.01587	    0.00000	 63.0	 1	    1.06349	    0.96825;
	154	 1	 20.4	 0.6	 0.0	 0.0	 1	    1.00000	    0.00000	 63.0	 1	    1.06349	    0.93651;
	155	 1	 0.0	 0.0	 0.0	 0.0	 1	    1.01111	    0.00000	 225.0	 1	    1.08889	    0.93333;
	156	 2	 0.0	 0.0	 0.0	 0.0	 1	    1.00000	    0.00000	 63.0	 1	    1.07937	    0.92063;
	157	 1	 0.0	 0.0	 0.0	 0.0	 1	    1.01587	    0.00000	 63.0	 1	    1.06349	    0.96825;
	158	 1	 -0.1	 -2.1	 0.0	 0.0	 1	    0.94444	    0.00000	 45.0	 1	    1.00000	    0.88889;
	159	 2	 0.0	 0.0	 0.0	 0.0	 1	    0.94444	    0.00000	 45.0	 1	    1.00000	    0.88889;
	160	 1	 0.0	 0.0	 0.0	 0.0	 1	    1.00000	    0.00000	 63.0	 1	    1.06349	    0.93651;
	161	 1	 29.5	 2.3	 0.0	 0.0	 1	    0.98889	    0.00000	 225.0	 1	    1.08889	    0.88889;
	162	 1	 31.5	 7.4	 0.0	 0.0	 1	    0.98889	    0.00000	 225.0	 1	    1.08889	    0.88889;
	163	 1	 0.4	 -1.6	 0.0	 0.0	 1	    1.02222	    0.00000	 90.0	 1	    1.06667	    0.97778;
	164	 1	 0.0	 0.0	 0.0	 0.0	 1	    1.01588	    0.00000	 63.0	 1	    1.07937	    0.95238;
	165	 1	 0.0	 0.0	 0.0	 0.0	 1	    1.01588	    0.00000	 63.0	 1	    1.07937	    0.95238;
	166	 1	 11.3	 -3.9	 0.0	 0.0	 1	    0.97500	    0.00000	 20.0	 1	    1.15000	    0.80000;
	167	 1	 5.8	 1.4	 0.0	 0.0	 1	    1.02222	    0.00000	 90.0	 1	    1.06667	    0.97778;
	168	 1	 7.8	 -0.9	 0.0	 0.0	 1	    1.02222	    0.00000	 90.0	 1	    1.06667	    0.97778;
	169	 1	 0.0	 0.0	 0.0	 0.0	 1	    1.04543	    0.00000	 225.0	 1	    1.08642	    1.00444;
	170	 1	 9.1	 -1.1	 0.0	 0.0	 1	    1.02222	    0.00000	 90.0	 1	    1.06667	    0.97778;
	171	 1	 60.0	 6.1	 0.0	 0.0	 1	    1.02778	    0.00000	 90.0	 1	    1.07778	    0.97778;
	172	 1	 21.4	 -1.8	 0.0	 0.0	 1	    1.02778	    0.00000	 90.0	 1	    1.07778	    0.97778;
	173	 1	 0.0	 0.0	 0.0	 0.0	 1	    1.04666	    0.00000	 225.0	 1	    1.08889	    1.00444;
	174	 1	 26.6	 6.6	 0.0	 0.0	 1	    1.01111	    0.00000	 90.0	 1	    1.08889	    0.93333;
	175	 1	 35.7	 -1.5	 0.0	 0.0	 1	    1.03333	    0.00000	 90.0	 1	    1.11111	    0.95556;
	176	 1	 0.0	 0.0	 0.0	 0.0	 1	    1.00000	    0.00000	 63.0	 1	    1.07937	    0.92063;
	177	 1	 0.0	 0.0	 0.0	 0.0	 1	    1.00000	    0.00000	 63.0	 1	    1.07937	    0.92063;
	178	 2	 0.0	 0.0	 0.0	 0.0	 1	    1.00000	    0.00000	 150.0	 1	    1.10000	    0.90000;
	179	 1	 0.0	 0.0	 0.0	 0.0	 1	    1.04666	    0.00000	 225.0	 1	    1.08889	    1.00444;
	180	 1	 0.0	 0.0	 0.0	 0.0	 1	    1.04666	    0.00000	 225.0	 1	    1.08889	    1.00444;
	181	 1	 0.0	 0.0	 0.0	 -32.0	 1	    0.97500	    0.00000	 20.0	 1	    1.15000	    0.80000;
	182	 1	 0.0	 0.0	 0.0	 -32.0	 1	    0.97500	    0.00000	 20.0	 1	    1.15000	    0.80000;
	183	 1	 0.0	 0.0	 0.0	 0.0	 1	    1.00000	    0.00000	 63.0	 1	    1.04762	    0.95238;
	184	 1	 0.0	 0.0	 0.0	 -80.0	 1	    1.04666	    0.00000	 225.0	 1	    1.08889	    1.00444;
	185	 1	 12.1	 -5.9	 0.0	 0.0	 1	    1.00000	    0.00000	 63.0	 1	    1.07937	    0.92063;
	186	 1	 16.0	 3.1	 0.0	 0.0	 1	    1.00000	    0.00000	 63.0	 1	    1.06349	    0.93651;
	187	 1	 5.4	 0.3	 0.0	 0.0	 1	    1.01588	    0.00000	 63.0	 1	    1.07937	    0.95238;
	188	 1	 3.0	 0.4	 0.0	 0.0	 1	    1.02778	    0.00000	 90.0	 1	    1.07778	    0.97778;
	189	 1	 21.9	 2.4	 0.0	 0.0	 1	    1.01588	    0.00000	 63.0	 1	    1.07937	    0.95238;
	190	 1	 1.4	 -0.7	 0.0	 0.0	 1	    1.02222	    0.00000	 90.0	 1	    1.06667	    0.97778;
	191	 2	 0.0	 0.0	 0.0	 0.0	 1	    1.00000	    0.00000	 63.0	 1	    1.07937	    0.92063;
	192	 1	 12.5	 1.1	 0.0	 0.0	 1	    1.00000	    0.00000	 63.0	 1	    1.07937	    0.92063;
	193	 2	 0.0	 0.0	 0.0	 0.0	 1	    0.94444	    0.00000	 45.0	 1	    1.00000	    0.88889;
	194	 1	 12.7	 -1.3	 0.0	 0.0	 1	    1.02222	    0.00000	 90.0	 1	    1.06667	    0.97778;
	195	 1	 7.3	 -1.4	 0.0	 0.0	 1	    1.00000	    0.00000	 63.0	 1	    1.07937	    0.92063;
	196	 1	 7.7	 5.3	 0.0	 0.0	 1	    1.04666	    0.00000	 225.0	 1	    1.08889	    1.00444;
	197	 2	 1.4	 -3.2	 0.0	 0.0	 1	    1.00000	    0.00000	 63.0	 1	    1.07937	    0.92063;
	198	 1	 0.0	 0.0	 0.0	 0.0	 1	    1.02491	    0.00000	 63.0	 1	    1.09743	    0.95238;
	199	 1	 0.0	 0.0	 0.0	 0.0	 1	    1.02491	    0.00000	 63.0	 1	    1.09743	    0.95238;
	200	 1	 25.0	 -4.9	 0.0	 0.0	 1	    1.00000	    0.00000	 63.0	 1	    1.07937	    0.92063;
...
];

%% generator data
%	bus	Pg	Qg	Qmax	Qmin	Vg	mBase	status	Pmax	Pmin	Pc1	Pc2	Qc1min	Qc1max	Qc2min	Qc2max	ramp_agc	ramp_10	ramp_30	ramp_q	apf
mpc.gen = [
	4	 6.0	 0.0	 0.0	 0.0	 1.067	 100.0	 0	 12.0	 0.0	 0.0	 0.0	 0.0	 0.0	 0.0	 0.0	 0.0	 0.0	 0.0	 0.0	 0.0;
	4	 5.0	 0.0	 0.0	 0.0	 1.067	 100.0	 0	 10.0	 0.0	 0.0	 0.0	 0.0	 0.0	 0.0	 0.0	 0.0	 0.0	 0.0	 0.0	 0.0;
	5	 4.55	 0.0	 0.0	 0.0	 0.985	 100.0	 0	 9.1	 0.0	 0.0	 0.0	 0.0	 0.0	 0.0	 0.0	 0.0	 0.0	 0.0	 0.0	 0.0;
	11	 14.0	 0.0	 0.0	 0.0	 1.067	 100.0	 0	 28.0	 0.0	 0.0	 0.0	 0.0	 0.0	 0.0	 0.0	 0.0	 0.0	 0.0	 0.0	 0.0;
	11	 9.0	 0.0	 0.0	 0.0	 1.067	 100.0	 0	 18.0	 0.0	 0.0	 0.0	 0.0	 0.0	 0.0	 0.0	 0.0	 0.0	 0.0	 0.0	 0.0;
	17	 4.1	 0.0	 0.0	 0.0	 1.055	 100.0	 0	 8.2	 0.0	 0.0	 0.0	 0.0	 0.0	 0.0	 0.0	 0.0	 0.0	 0.0	 0.0	 0.0;
	19	 0.6	 0.0	 0.0	 0.0	 1.03	 100.0	 0	 1.2	 0.0	 0.0	 0.0	 0.0	 0.0	 0.0	 0.0	 0.0	 0.0	 0.0	 0.0	 0.0;
	22	 5.0	 0.0	 0.0	 0.0	 1.004	 100.0	 0	 10.0	 0.0	 0.0	 0.0	 0.0	 0.0	 0.0	 0.0	 0.0	 0.0	 0.0	 0.0	 0.0;
	24	 8.05	 0.0	 0.0	 0.0	 1.064	 100.0	 0	 16.1	 0.0	 0.0	 0.0	 0.0	 0.0	 0.0	 0.0	 0.0	 0.0	 0.0	 0.0	 0.0;
	24	 17.75	 0.0	 0.0	 0.0	 1.064	 100.0	 0	 35.5	 0.0	 0.0	 0.0	 0.0	 0.0	 0.0	 0.0	 0.0	 0.0	 0.0	 0.0	 0.0;
	25	 18.0	 0.0	 0.0	 0.0	 1.093	 100.0	 0	 36.0	 0.0	 0.0	 0.0	 0.0	 0.0	 0.0	 0.0	 0.0	 0.0	 0.0	 0.0	 0.0;
	25	 13.6	 0.0	 0.0	 0.0	 1.093	 100.0	 0	 27.2	 0.0	 0.0	 0.0	 0.0	 0.0	 0.0	 0.0	 0.0	 0.0	 0.0	 0.0	 0.0;
	40	 4.0	 0.0	 0.0	 0.0	 1.044	 100.0	 0	 8.0	 0.0	 0.0	 0.0	 0.0	 0.0	 0.0	 0.0	 0.0	 0.0	 0.0	 0.0	 0.0;
	47	 8.0	 0.0	 9.5	 -9.5	 0.994	 100.0	 0	 16.0	 0.0	 0.0	 0.0	 0.0	 0.0	 0.0	 0.0	 0.0	 0.0	 0.0	 0.0	 0.0;
	47	 8.0	 0.0	 9.5	 -9.5	 0.994	 100.0	 0	 16.0	 0.0	 0.0	 0.0	 0.0	 0.0	 0.0	 0.0	 0.0	 0.0	 0.0	 0.0	 0.0;
	48	 11.5	 0.0	 0.0	 0.0	 1.052	 100.0	 0	 23.0	 0.0	 0.0	 0.0	 0.0	 0.0	 0.0	 0.0	 0.0	 0.0	 0.0	 0.0	 0.0;
	48	 12.0	 0.0	 0.0	 0.0	 1.052	 100.0	 0	 24.0	 0.0	 0.0	 0.0	 0.0	 0.0	 0.0	 0.0	 0.0	 0.0	 0.0	 0.0	 0.0;
	57	 6.5	 0.95	 1.0	 0.9	 1.059	 100.0	 1	 13.0	 0.0	 0.0	 0.0	 0.0	 0.0	 0.0	 0.0	 0.0	 0.0	 0.0	 0.0	 0.0;
	64	 12.0	 0.0	 0.0	 0.0	 1.073	 100.0	 0	 24.0	 0.0	 0.0	 0.0	 0.0	 0.0	 0.0	 0.0	 0.0	 0.0	 0.0	 0.0	 0.0;
	64	 13.8	 0.0	 0.0	 0.0	 1.073	 100.0	 0	 27.6	 0.0	 0.0	 0.0	 0.0	 0.0	 0.0	 0.0	 0.0	 0.0	 0.0	 0.0	 0.0;
	69	 15.02	 0.0	 0.0	 0.0	 1.013	 100.0	 1	 30.04	 0.0	 0.0	 0.0	 0.0	 0.0	 0.0	 0.0	 0.0	 0.0	 0.0	 0.0	 0.0;
	70	 11.5	 0.0	 0.0	 0.0	 1.007	 100.0	 0	 23.0	 0.0	 0.0	 0.0	 0.0	 0.0	 0.0	 0.0	 0.0	 0.0	 0.0	 0.0	 0.0;
	85	 3.34	 0.0	 0.0	 0.0	 1.044	 100.0	 0	 6.68	 0.0	 0.0	 0.0	 0.0	 0.0	 0.0	 0.0	 0.0	 0.0	 0.0	 0.0	 0.0;
	86	 4.6	 0.0	 0.0	 0.0	 1.018	 100.0	 0	 9.2	 0.0	 0.0	 0.0	 0.0	 0.0	 0.0	 0.0	 0.0	 0.0	 0.0	 0.0	 0.0;
	102	 23.0	 6.0	 21.0	 -9.0	 1.02	 100.0	 1	 46.0	 0.0	 0.0	 0.0	 0.0	 0.0	 0.0	 0.0	 0.0	 0.0	 0.0	 0.0	 0.0;
	122	 6.0	 1.5	 5.0	 -2.0	 1.01	 100.0	 0	 12.0	 0.0	 0.0	 0.0	 0.0	 0.0	 0.0	 0.0	 0.0	 0.0	 0.0	 0.0	 0.0;
	124	 4.5	 0.0	 0.0	 0.0	 1.05	 100.0	 0	 9.0	 0.0	 0.0	 0.0	 0.0	 0.0	 0.0	 0.0	 0.0	 0.0	 0.0	 0.0	 0.0;
	125	 13.0	 0.0	 0.0	 0.0	 1.027	 100.0	 1	 26.0	 0.0	 0.0	 0.0	 0.0	 0.0	 0.0	 0.0	 0.0	 0.0	 0.0	 0.0	 0.0;
	125	 6.0	 0.0	 0.0	 0.0	 1.027	 100.0	 0	 12.0	 0.0	 0.0	 0.0	 0.0	 0.0	 0.0	 0.0	 0.0	 0.0	 0.0	 0.0	 0.0;
	132	 8.5	 0.0	 3.0	 -3.0	 1.047	 100.0	 0	 17.0	 0.0	 0.0	 0.0	 0.0	 0.0	 0.0	 0.0	 0.0	 0.0	 0.0	 0.0	 0.0;
	132	 2.0	 0.0	 1.0	 -1.0	 1.047	 100.0	 0	 4.0	 0.0	 0.0	 0.0	 0.0	 0.0	 0.0	 0.0	 0.0	 0.0	 0.0	 0.0	 0.0;
	132	 7.0	 0.0	 3.0	 -3.0	 1.047	 100.0	 0	 14.0	 0.0	 0.0	 0.0	 0.0	 0.0	 0.0	 0.0	 0.0	 0.0	 0.0	 0.0	 0.0;
	132	 7.0	 0.0	 3.0	 -3.0	 1.047	 100.0	 0	 14.0	 0.0	 0.0	 0.0	 0.0	 0.0	 0.0	 0.0	 0.0	 0.0	 0.0	 0.0	 0.0;
	137	 9.0	 0.0	 0.8	 -0.8	 1.007	 100.0	 0	 18.0	 0.0	 0.0	 0.0	 0.0	 0.0	 0.0	 0.0	 0.0	 0.0	 0.0	 0.0	 0.0;
	137	 9.0	 0.0	 0.8	 -0.8	 1.007	 100.0	 0	 18.0	 0.0	 0.0	 0.0	 0.0	 0.0	 0.0	 0.0	 0.0	 0.0	 0.0	 0.0	 0.0;
	156	 2.65	 0.0	 1.76	 -1.76	 1.063	 100.0	 0	 5.3	 0.0	 0.0	 0.0	 0.0	 0.0	 0.0	 0.0	 0.0	 0.0	 0.0	 0.0	 0.0;
	159	 8.95	 -1.5	 10.0	 -13.0	 0.942	 100.0	 0	 17.9	 0.0	 0.0	 0.0	 0.0	 0.0	 0.0	 0.0	 0.0	 0.0	 0.0	 0.0	 0.0;
	159	 8.95	 -1.5	 10.0	 -13.0	 0.942	 100.0	 0	 17.9	 0.0	 0.0	 0.0	 0.0	 0.0	 0.0	 0.0	 0.0	 0.0	 0.0	 0.0	 0.0;
	178	 15.0	 3.0	 10.0	 -4.0	 1.1	 100.0	 0	 30.0	 0.0	 0.0	 0.0	 0.0	 0.0	 0.0	 0.0	 0.0	 0.0	 0.0	 0.0	 0.0;
	191	 5.5	 0.0	 8.0	 -8.0	 1.075	 100.0	 0	 11.0	 0.0	 0.0	 0.0	 0.0	 0.0	 0.0	 0.0	 0.0	 0.0	 0.0	 0.0	 0.0;
	191	 5.5	 0.0	 2.0	 -2.0	 1.075	 100.0	 0	 11.0	 0.0	 0.0	 0.0	 0.0	 0.0	 0.0	 0.0	 0.0	 0.0	 0.0	 0.0	 0.0;
	193	 15.0	 0.0	 14.0	 -14.0	 0.922	 100.0	 0	 30.0	 0.0	 0.0	 0.0	 0.0	 0.0	 0.0	 0.0	 0.0	 0.0	 0.0	 0.0	 0.0;
	195	 11.75	 0.0	 0.0	 0.0	 1.058	 100.0	 0	 23.5	 0.0	 0.0	 0.0	 0.0	 0.0	 0.0	 0.0	 0.0	 0.0	 0.0	 0.0	 0.0;
	197	 7.5	 0.95	 1.0	 0.9	 1.071	 100.0	 1	 15.0	 0.0	 0.0	 0.0	 0.0	 0.0	 0.0	 0.0	 0.0	 0.0	 0.0	 0.0	 0.0;
	197	 7.5	 0.95	 1.0	 0.9	 1.071	 100.0	 1	 15.0	 0.0	 0.0	 0.0	 0.0	 0.0	 0.0	 0.0	 0.0	 0.0	 0.0	 0.0	 0.0;
	220	 5.97	 0.0	 0.0	 0.0	 1.02	 100.0	 0	 11.94	 0.0	 0.0	 0.0	 0.0	 0.0	 0.0	 0.0	 0.0	 0.0	 0.0	 0.0	 0.0;
	227	 3.0	 1.0	 2.0	 0.0	 1.1	 100.0	 0	 6.0	 0.0	 0.0	 0.0	 0.0	 0.0	 0.0	 0.0	 0.0	 0.0	 0.0	 0.0	 0.0;
	230	 3.75	 0.0	 0.0	 0.0	 0.991	 100.0	 0	 7.5	 0.0	 0.0	 0.0	 0.0	 0.0	 0.0	 0.0	 0.0	 0.0	 0.0	 0.0	 0.0;
	239	 16.75	 0.0	 0.0	 0.0	 1.062	 100.0	 0	 33.5	 0.0	 0.0	 0.0	 0.0	 0.0	 0.0	 0.0	 0.0	 0.0	 0.0	 0.0	 0.0;
	239	 12.15	 0.0	 0.0	 0.0	 1.062	 100.0	 0	 24.3	 0.0	 0.0	 0.0	 0.0	 0.0	 0.0	 0.0	 0.0	 0.0	 0.0	 0.0	 0.0;
	241	 4.0	 0.0	 0.0	 0.0	 1.029	 100.0	 0	 8.0	 0.0	 0.0	 0.0	 0.0	 0.0	 0.0	 0.0	 0.0	 0.0	 0.0	 0.0	 0.0;
	241	 18.0	 0.0	 0.0	 0.0	 1.029	 100.0	 0	 36.0	 0.0	 0.0	 0.0	 0.0	 0.0	 0.0	 0.0	 0.0	 0.0	 0.0	 0.0	 0.0;
	249	 0.5	 1.0	 2.0	 0.0	 0.968	 100.0	 0	 1.0	 0.0	 0.0	 0.0	 0.0	 0.0	 0.0	 0.0	 0.0	 0.0	 0.0	 0.0	 0.0;
	249	 15.5	 0.0	 10.0	 -10.0	 0.968	 100.0	 0	 31.0	 0.0	 0.0	 0.0	 0.0	 0.0	 0.0	 0.0	 0.0	 0.0	 0.0	 0.0	 0.0;
	249	 15.5	 0.0	 10.0	 -10.0	 0.968	 100.0	 0	 31.0	 0.0	 0.0	 0.0	 0.0	 0.0	 0.0	 0.0	 0.0	 0.0	 0.0	 0.0	 0.0;
	249	 15.5	 0.0	 10.0	 -10.0	 0.968	 100.0	 0	 31.0	 0.0	 0.0	 0.0	 0.0	 0.0	 0.0	 0.0	 0.0	 0.0	 0.0	 0.0	 0.0;
	259	 13.0	 0.0	 10.0	 -10.0	 1.059	 100.0	 0	 26.0	 0.0	 0.0	 0.0	 0.0	 0.0	 0.0	 0.0	 0.0	 0.0	 0.0	 0.0	 0.0;
	259	 13.0	 0.0	 10.0	 -10.0	 1.059	 100.0	 0	 26.0	 0.0	 0.0	 0.0	 0.0	 0.0	 0.0	 0.0	 0.0	 0.0	 0.0	 0.0	 0.0;
	261	 15.0	 0.95	 1.0	 0.9	 1.057	 100.0	 0	 30.0	 0.0	 0.0	 0.0	 0.0	 0.0	 0.0	 0.0	 0.0	 0.0	 0.0	 0.0	 0.0;
	264	 4.0	 0.0	 4.0	 -4.0	 1.078	 100.0	 0	 8.0	 0.0	 0.0	 0.0	 0.0	 0.0	 0.0	 0.0	 0.0	 0.0	 0.0	 0.0	 0.0;
	272	 6.3	 0.0	 0.0	 0.0	 1.03	 100.0	 0	 12.6	 0.0	 0.0	 0.0	 0.0	 0.0	 0.0	 0.0	 0.0	 0.0	 0.0	 0.0	 0.0;
	285	 5.8	 -0.05	 6.1	 -6.2	 0.968	 100.0	 0	 11.6	 0.0	 0.0	 0.0	 0.0	 0.0	 0.0	 0.0	 0.0	 0.0	 0.0	 0.0	 0.0;
	298	 12.65	 0.0	 0.0	 0.0	 1.071	 100.0	 0	 25.3	 0.0	 0.0	 0.0	 0.0	 0.0	 0.0	 0.0	 0.0	 0.0	 0.0	 0.0	 0.0;
	299	 6.0	 0.0	 0.0	 0.0	 1.028	 100.0	 0	 12.0	 0.0	 0.0	 0.0	 0.0	 0.0	 0.0	 0.0	 0.0	 0.0	 0.0	 0.0	 0.0;
	308	 7.5	 0.0	 9.0	 -9.0	 1.046	 100.0	 0	 15.0	 0.0	 0.0	 0.0	 0.0	 0.0	 0.0	 0.0	 0.0	 0.0	 0.0	 0.0	 0.0;
	315	 12.9	 0.0	 0.0	 0.0	 1.02	 100.0	 1	 25.8	 0.0	 0.0	 0.0	 0.0	 0.0	 0.0	 0.0	 0.0	 0.0	 0.0	 0.0	 0.0;
	315	 24.8	 0.0	 0.0	 0.0	 1.02	 100.0	 1	 49.6	 0.0	 0.0	 0.0	 0.0	 0.0	 0.0	 0.0	 0.0	 0.0	 0.0	 0.0	 0.0;
	320	 -3.5	 0.0	 0.0	 0.0	 1.059	 100.0	 0	 0.0	 -7.0	 0.0	 0.0	 0.0	 0.0	 0.0	 0.0	 0.0	 0.0	 0.0	 0.0	 0.0;
	320	 -3.5	 0.0	 0.0	 0.0	 1.059	 100.0	 0	 0.0	 -7.0	 0.0	 0.0	 0.0	 0.0	 0.0	 0.0	 0.0	 0.0	 0.0	 0.0	 0.0;
	322	 5.4	 0.0	 0.1	 -0.1	 1.056	 100.0	 0	 10.8	 0.0	 0.0	 0.0	 0.0	 0.0	 0.0	 0.0	 0.0	 0.0	 0.0	 0.0	 0.0;
	328	 5.5	 0.0	 4.0	 -4.0	 1.036	 100.0	 0	 11.0	 0.0	 0.0	 0.0	 0.0	 0.0	 0.0	 0.0	 0.0	 0.0	 0.0	 0.0	 0.0;
	335	 12.5	 2.0	 13.0	 -9.0	 1.036	 100.0	 0	 25.0	 0.0	 0.0	 0.0	 0.0	 0.0	 0.0	 0.0	 0.0	 0.0	 0.0	 0.0	 0.0;
	336	 12.5	 2.0	 13.0	 -9.0	 1.04	 100.0	 0	 25.0	 0.0	 0.0	 0.0	 0.0	 0.0	 0.0	 0.0	 0.0	 0.0	 0.0	 0.0	 0.0;
	339	 6.5	 -0.5	 5.0	 -6.0	 1.022	 100.0	 0	 13.0	 0.0	 0.0	 0.0	 0.0	 0.0	 0.0	 0.0	 0.0	 0.0	 0.0	 0.0	 0.0;
	341	 10.5	 0.0	 10.0	 -10.0	 1.079	 100.0	 0	 21.0	 0.0	 0.0	 0.0	 0.0	 0.0	 0.0	 0.0	 0.0	 0.0	 0.0	 0.0	 0.0;
	341	 1.0	 0.0	 0.1	 -0.1	 1.079	 100.0	 0	 2.0	 0.0	 0.0	 0.0	 0.0	 0.0	 0.0	 0.0	 0.0	 0.0	 0.0	 0.0	 0.0;
	348	 1.15	 0.0	 0.0	 0.0	 1.056	 100.0	 0	 2.3	 0.0	 0.0	 0.0	 0.0	 0.0	 0.0	 0.0	 0.0	 0.0	 0.0	 0.0	 0.0;
	348	 9.75	 0.0	 0.0	 0.0	 1.056	 100.0	 1	 19.5	 0.0	 0.0	 0.0	 0.0	 0.0	 0.0	 0.0	 0.0	 0.0	 0.0	 0.0	 0.0;
	351	 11.0	 0.0	 0.0	 0.0	 1.081	 100.0	 0	 22.0	 0.0	 0.0	 0.0	 0.0	 0.0	 0.0	 0.0	 0.0	 0.0	 0.0	 0.0	 0.0;
	359	 15.0	 0.0	 30.0	 -30.0	 1.035	 100.0	 0	 30.0	 0.0	 0.0	 0.0	 0.0	 0.0	 0.0	 0.0	 0.0	 0.0	 0.0	 0.0	 0.0;
	360	 6.0	 0.0	 0.0	 0.0	 0.988	 100.0	 0	 12.0	 0.0	 0.0	 0.0	 0.0	 0.0	 0.0	 0.0	 0.0	 0.0	 0.0	 0.0	 0.0;
	360	 6.0	 0.0	 0.0	 0.0	 0.988	 100.0	 0	 12.0	 0.0	 0.0	 0.0	 0.0	 0.0	 0.0	 0.0	 0.0	 0.0	 0.0	 0.0	 0.0;
	367	 65.0	 16.5	 59.0	 -26.0	 1.072	 100.0	 1	 130.0	 0.0	 0.0	 0.0	 0.0	 0.0	 0.0	 0.0	 0.0	 0.0	 0.0	 0.0	 0.0;
	394	 1.35	 0.0	 0.0	 0.0	 1.031	 100.0	 0	 2.7	 0.0	 0.0	 0.0	 0.0	 0.0	 0.0	 0.0	 0.0	 0.0	 0.0	 0.0	 0.0;
	413	 5.0	 0.0	 0.0	 0.0	 1.03	 100.0	 0	 10.0	 0.0	 0.0	 0.0	 0.0	 0.0	 0.0	 0.0	 0.0	 0.0	 0.0	 0.0	 0.0;
	413	 5.75	 0.0	 0.0	 0.0	 1.03	 100.0	 0	 11.5	 0.0	 0.0	 0.0	 0.0	 0.0	 0.0	 0.0	 0.0	 0.0	 0.0	 0.0	 0.0;
	433	 6.0	 0.0	 0.0	 0.0	 1.058	 100.0	 0	 12.0	 0.0	 0.0	 0.0	 0.0	 0.0	 0.0	 0.0	 0.0	 0.0	 0.0	 0.0	 0.0;
	442	 17.125	 -0.515	 10.96	 -11.99	 1.065	 100.0	 0	 34.25	 0.0	 0.0	 0.0	 0.0	 0.0	 0.0	 0.0	 0.0	 0.0	 0.0	 0.0	 0.0;
	449	 12.5	 -0.5	 8.0	 -9.0	 0.994	 100.0	 0	 25.0	 0.0	 0.0	 0.0	 0.0	 0.0	 0.0	 0.0	 0.0	 0.0	 0.0	 0.0	 0.0;
	465	 1.2	 0.0	 0.0	 0.0	 0.992	 100.0	 0	 2.4	 0.0	 0.0	 0.0	 0.0	 0.0	 0.0	 0.0	 0.0	 0.0	 0.0	 0.0	 0.0;
	465	 8.0	 0.0	 0.0	 0.0	 0.992	 100.0	 0	 16.0	 0.0	 0.0	 0.0	 0.0	 0.0	 0.0	 0.0	 0.0	 0.0	 0.0	 0.0	 0.0;
	467	 14.0	 1.5	 6.0	 -3.0	 1.17	 100.0	 1	 27.0	 1.0	 0.0	 0.0	 0.0	 0.0	 0.0	 0.0	 0.0	 0.0	 0.0	 0.0	 0.0;
	467	 14.0	 1.5	 6.0	 -3.0	 1.17	 100.0	 1	 27.0	 1.0	 0.0	 0.0	 0.0	 0.0	 0.0	 0.0	 0.0	 0.0	 0.0	 0.0	 0.0;
	469	 24.5	 4.5	 19.0	 -10.0	 1.029	 100.0	 1	 48.0	 1.0	 0.0	 0.0	 0.0	 0.0	 0.0	 0.0	 0.0	 0.0	 0.0	 0.0	 0.0;
	473	 5.0	 0.0	 6.0	 -6.0	 1.02	 100.0	 0	 10.0	 0.0	 0.0	 0.0	 0.0	 0.0	 0.0	 0.0	 0.0	 0.0	 0.0	 0.0	 0.0;
	473	 4.5	 0.0	 5.4	 -5.4	 1.02	 100.0	 0	 9.0	 0.0	 0.0	 0.0	 0.0	 0.0	 0.0	 0.0	 0.0	 0.0	 0.0	 0.0	 0.0;
	482	 13.5	 0.5	 17.0	 -16.0	 0.975	 100.0	 0	 27.0	 0.0	 0.0	 0.0	 0.0	 0.0	 0.0	 0.0	 0.0	 0.0	 0.0	 0.0	 0.0;
	482	 13.5	 0.5	 17.0	 -16.0	 0.975	 100.0	 0	 27.0	 0.0	 0.0	 0.0	 0.0	 0.0	 0.0	 0.0	 0.0	 0.0	 0.0	 0.0	 0.0;
	482	 13.5	 0.5	 17.0	 -16.0	 0.975	 100.0	 0	 27.0	 0.0	 0.0	 0.0	 0.0	 0.0	 0.0	 0.0	 0.0	 0.0	 0.0	 0.0	 0.0;
	494	 11.7	 -4.5	 8.0	 -17.0	 1.049	 100.0	 0	 23.4	 0.0	 0.0	 0.0	 0.0	 0.0	 0.0	 0.0	 0.0	 0.0	 0.0	 0.0	 0.0;
	511	 2.0	 0.0	 2.0	 -2.0	 1.008	 100.0	 0	 4.0	 0.0	 0.0	 0.0	 0.0	 0.0	 0.0	 0.0	 0.0	 0.0	 0.0	 0.0	 0.0;
	520	 5.0	 0.0	 0.0	 0.0	 1.03	 100.0	 0	 10.0	 0.0	 0.0	 0.0	 0.0	 0.0	 0.0	 0.0	 0.0	 0.0	 0.0	 0.0	 0.0;
	521	 6.0	 0.0	 0.0	 0.0	 1.04	 100.0	 0	 12.0	 0.0	 0.0	 0.0	 0.0	 0.0	 0.0	 0.0	 0.0	 0.0	 0.0	 0.0	 0.0;
	531	 4.0	 0.0	 4.8	 -4.8	 1.001	 100.0	 0	 8.0	 0.0	 0.0	 0.0	 0.0	 0.0	 0.0	 0.0	 0.0	 0.0	 0.0	 0.0	 0.0;
	531	 4.0	 0.0	 4.8	 -4.8	 1.001	 100.0	 0	 8.0	 0.0	 0.0	 0.0	 0.0	 0.0	 0.0	 0.0	 0.0	 0.0	 0.0	 0.0	 0.0;
	531	 4.0	 0.0	 4.8	 -4.8	 1.001	 100.0	 0	 8.0	 0.0	 0.0	 0.0	 0.0	 0.0	 0.0	 0.0	 0.0	 0.0	 0.0	 0.0	 0.0;
	537	 6.0	 0.0	 0.0	 0.0	 1.026	 100.0	 0	 12.0	 0.0	 0.0	 0.0	 0.0	 0.0	 0.0	 0.0	 0.0	 0.0	 0.0	 0.0	 0.0;
	537	 12.0	 0.0	 0.0	 0.0	 1.026	 100.0	 1	 24.0	 0.0	 0.0	 0.0	 0.0	 0.0	 0.0	 0.0	 0.0	 0.0	 0.0	 0.0	 0.0;
	546	 4.5	 1.95	 2.0	 1.9	 1.066	 100.0	 1	 9.0	 0.0	 0.0	 0.0	 0.0	 0.0	 0.0	 0.0	 0.0	 0.0	 0.0	 0.0	 0.0;
	549	 6.0	 1.0	 2.0	 0.0	 1.057	 100.0	 0	 12.0	 0.0	 0.0	 0.0	 0.0	 0.0	 0.0	 0.0	 0.0	 0.0	 0.0	 0.0	 0.0;
	571	 6.0	 0.0	 0.0	 0.0	 0.985	 100.0	 0	 12.0	 0.0	 0.0	 0.0	 0.0	 0.0	 0.0	 0.0	 0.0	 0.0	 0.0	 0.0	 0.0;
	571	 15.0	 0.0	 0.0	 0.0	 0.985	 100.0	 1	 30.0	 0.0	 0.0	 0.0	 0.0	 0.0	 0.0	 0.0	 0.0	 0.0	 0.0	 0.0	 0.0;
	571	 5.75	 0.0	 0.0	 0.0	 0.985	 100.0	 0	 11.5	 0.0	 0.0	 0.0	 0.0	 0.0	 0.0	 0.0	 0.0	 0.0	 0.0	 0.0	 0.0;
	584	 8.0	 1.5	 7.0	 -4.0	 1.035	 100.0	 1	 16.0	 0.0	 0.0	 0.0	 0.0	 0.0	 0.0	 0.0	 0.0	 0.0	 0.0	 0.0	 0.0;
	586	 4.5	 0.0	 0.0	 0.0	 0.981	 100.0	 0	 9.0	 0.0	 0.0	 0.0	 0.0	 0.0	 0.0	 0.0	 0.0	 0.0	 0.0	 0.0	 0.0;
	587	 4.75	 0.0	 5.7	 -5.7	 0.997	 100.0	 0	 9.5	 0.0	 0.0	 0.0	 0.0	 0.0	 0.0	 0.0	 0.0	 0.0	 0.0	 0.0	 0.0;
	590	 0.5	 0.0	 0.1	 -0.1	 1.037	 100.0	 0	 1.0	 0.0	 0.0	 0.0	 0.0	 0.0	 0.0	 0.0	 0.0	 0.0	 0.0	 0.0	 0.0;
	594	 10.5	 0.0	 10.0	 -10.0	 1.045	 100.0	 0	 21.0	 0.0	 0.0	 0.0	 0.0	 0.0	 0.0	 0.0	 0.0	 0.0	 0.0	 0.0	 0.0;
	601	 3.05	 0.0	 1.0	 -1.0	 1.034	 100.0	 0	 6.1	 0.0	 0.0	 0.0	 0.0	 0.0	 0.0	 0.0	 0.0	 0.0	 0.0	 0.0	 0.0;
	611	 22.5	 0.0	 45.0	 -45.0	 1.022	 100.0	 1	 45.0	 0.0	 0.0	 0.0	 0.0	 0.0	 0.0	 0.0	 0.0	 0.0	 0.0	 0.0	 0.0;
	611	 22.5	 0.0	 45.0	 -45.0	 1.022	 100.0	 0	 45.0	 0.0	 0.0	 0.0	 0.0	 0.0	 0.0	 0.0	 0.0	 0.0	 0.0	 0.0	 0.0;
	613	 6.0	 0.0	 0.0	 0.0	 1.017	 100.0	 0	 12.0	 0.0	 0.0	 0.0	 0.0	 0.0	 0.0	 0.0	 0.0	 0.0	 0.0	 0.0	 0.0;
	613	 6.0	 0.0	 0.0	 0.0	 1.017	 100.0	 0	 12.0	 0.0	 0.0	 0.0	 0.0	 0.0	 0.0	 0.0	 0.0	 0.0	 0.0	 0.0	 0.0;
	613	 6.0	 0.0	 0.0	 0.0	 1.017	 100.0	 0	 12.0	 0.0	 0.0	 0.0	 0.0	 0.0	 0.0	 0.0	 0.0	 0.0	 0.0	 0.0	 0.0;
	614	 17.5	 0.0	 0.0	 0.0	 1.03	 100.0	 0	 35.0	 0.0	 0.0	 0.0	 0.0	 0.0	 0.0	 0.0	 0.0	 0.0	 0.0	 0.0	 0.0;
	614	 5.75	 0.0	 0.0	 0.0	 1.03	 100.0	 0	 11.5	 0.0	 0.0	 0.0	 0.0	 0.0	 0.0	 0.0	 0.0	 0.0	 0.0	 0.0	 0.0;
	626	 0.0	 0.0	 8.3	 -8.3	 1.03	 100.0	 0	 8.3	 -8.3	 0.0	 0.0	 0.0	 0.0	 0.0	 0.0	 0.0	 0.0	 0.0	 0.0	 0.0;
	635	 3.65	 -1.0	 4.0	 -6.0	 1.031	 100.0	 0	 7.3	 0.0	 0.0	 0.0	 0.0	 0.0	 0.0	 0.0	 0.0	 0.0	 0.0	 0.0	 0.0;
	638	 7.5	 3.5	 7.0	 0.0	 1.013	 100.0	 0	 15.0	 0.0	 0.0	 0.0	 0.0	 0.0	 0.0	 0.0	 0.0	 0.0	 0.0	 0.0	 0.0;
	638	 7.5	 3.5	 7.0	 0.0	 1.013	 100.0	 0	 15.0	 0.0	 0.0	 0.0	 0.0	 0.0	 0.0	 0.0	 0.0	 0.0	 0.0	 0.0	 0.0;
	653	 3.5	 3.5	 7.0	 0.0	 1.058	 100.0	 0	 7.0	 0.0	 0.0	 0.0	 0.0	 0.0	 0.0	 0.0	 0.0	 0.0	 0.0	 0.0	 0.0;
	671	 6.0	 0.0	 0.0	 0.0	 1.048	 100.0	 0	 12.0	 0.0	 0.0	 0.0	 0.0	 0.0	 0.0	 0.0	 0.0	 0.0	 0.0	 0.0	 0.0;
	671	 6.0	 0.0	 0.0	 0.0	 1.048	 100.0	 0	 12.0	 0.0	 0.0	 0.0	 0.0	 0.0	 0.0	 0.0	 0.0	 0.0	 0.0	 0.0	 0.0;
	672	 3.75	 0.0	 0.0	 0.0	 1.049	 100.0	 0	 7.5	 0.0	 0.0	 0.0	 0.0	 0.0	 0.0	 0.0	 0.0	 0.0	 0.0	 0.0	 0.0;
	672	 12.0	 0.0	 0.0	 0.0	 1.049	 100.0	 1	 24.0	 0.0	 0.0	 0.0	 0.0	 0.0	 0.0	 0.0	 0.0	 0.0	 0.0	 0.0	 0.0;
	680	 3.3	 0.0	 0.0	 0.0	 1.002	 100.0	 0	 6.6	 0.0	 0.0	 0.0	 0.0	 0.0	 0.0	 0.0	 0.0	 0.0	 0.0	 0.0	 0.0;
	681	 6.0	 0.0	 0.0	 0.0	 1.071	 100.0	 0	 12.0	 0.0	 0.0	 0.0	 0.0	 0.0	 0.0	 0.0	 0.0	 0.0	 0.0	 0.0	 0.0;
	685	 4.5	 0.5	 6.0	 -5.0	 0.89	 100.0	 0	 9.0	 0.0	 0.0	 0.0	 0.0	 0.0	 0.0	 0.0	 0.0	 0.0	 0.0	 0.0	 0.0;
	685	 4.5	 0.5	 6.0	 -5.0	 0.89	 100.0	 0	 9.0	 0.0	 0.0	 0.0	 0.0	 0.0	 0.0	 0.0	 0.0	 0.0	 0.0	 0.0	 0.0;
	685	 5.5	 1.5	 8.0	 -5.0	 0.89	 100.0	 0	 11.0	 0.0	 0.0	 0.0	 0.0	 0.0	 0.0	 0.0	 0.0	 0.0	 0.0	 0.0	 0.0;
	685	 5.5	 1.5	 8.0	 -5.0	 0.89	 100.0	 0	 11.0	 0.0	 0.0	 0.0	 0.0	 0.0	 0.0	 0.0	 0.0	 0.0	 0.0	 0.0	 0.0;
	696	 16.175	 0.0	 0.0	 0.0	 1.067	 100.0	 1	 32.35	 0.0	 0.0	 0.0	 0.0	 0.0	 0.0	 0.0	 0.0	 0.0	 0.0	 0.0	 0.0;
	696	 6.0	 0.0	 0.0	 0.0	 1.067	 100.0	 0	 12.0	 0.0	 0.0	 0.0	 0.0	 0.0	 0.0	 0.0	 0.0	 0.0	 0.0	 0.0	 0.0;
	696	 10.5	 0.0	 0.0	 0.0	 1.067	 100.0	 0	 21.0	 0.0	 0.0	 0.0	 0.0	 0.0	 0.0	 0.0	 0.0	 0.0	 0.0	 0.0	 0.0;
	700	 18.5	 -1.0	 15.0	 -17.0	 1.0	 100.0	 1	 37.0	 0.0	 0.0	 0.0	 0.0	 0.0	 0.0	 0.0	 0.0	 0.0	 0.0	 0.0	 0.0;
	700	 18.5	 -1.0	 15.0	 -17.0	 1.0	 100.0	 1	 37.0	 0.0	 0.0	 0.0	 0.0	 0.0	 0.0	 0.0	 0.0	 0.0	 0.0	 0.0	 0.0;
	699	 18.5	 0.0	 15.0	 -15.0	 1.0	 100.0	 1	 37.0	 0.0	 0.0	 0.0	 0.0	 0.0	 0.0	 0.0	 0.0	 0.0	 0.0	 0.0	 0.0;
	699	 18.5	 0.0	 15.0	 -15.0	 1.0	 100.0	 1	 37.0	 0.0	 0.0	 0.0	 0.0	 0.0	 0.0	 0.0	 0.0	 0.0	 0.0	 0.0	 0.0;
	698	 18.5	 -1.0	 15.0	 -17.0	 1.004	 100.0	 1	 37.0	 0.0	 0.0	 0.0	 0.0	 0.0	 0.0	 0.0	 0.0	 0.0	 0.0	 0.0	 0.0;
	698	 18.5	 -1.0	 15.0	 -17.0	 1.004	 100.0	 1	 37.0	 0.0	 0.0	 0.0	 0.0	 0.0	 0.0	 0.0	 0.0	 0.0	 0.0	 0.0	 0.0;
	706	 2.0	 0.0	 2.0	 -2.0	 0.891	 100.0	 0	 4.0	 0.0	 0.0	 0.0	 0.0	 0.0	 0.0	 0.0	 0.0	 0.0	 0.0	 0.0	 0.0;
	706	 2.0	 0.0	 2.5	 -2.5	 0.891	 100.0	 0	 4.0	 0.0	 0.0	 0.0	 0.0	 0.0	 0.0	 0.0	 0.0	 0.0	 0.0	 0.0	 0.0;
	706	 2.85	 0.0	 3.0	 -3.0	 0.891	 100.0	 0	 5.7	 0.0	 0.0	 0.0	 0.0	 0.0	 0.0	 0.0	 0.0	 0.0	 0.0	 0.0	 0.0;
	706	 4.25	 0.5	 6.0	 -5.0	 0.891	 100.0	 0	 8.5	 0.0	 0.0	 0.0	 0.0	 0.0	 0.0	 0.0	 0.0	 0.0	 0.0	 0.0	 0.0;
	733	 9.75	 0.0	 0.0	 0.0	 1.023	 100.0	 1	 19.5	 0.0	 0.0	 0.0	 0.0	 0.0	 0.0	 0.0	 0.0	 0.0	 0.0	 0.0	 0.0;
	734	 19.5	 0.0	 18.0	 -18.0	 0.939	 100.0	 1	 39.0	 0.0	 0.0	 0.0	 0.0	 0.0	 0.0	 0.0	 0.0	 0.0	 0.0	 0.0	 0.0;
	735	 5.75	 0.0	 0.0	 0.0	 1.002	 100.0	 0	 11.5	 0.0	 0.0	 0.0	 0.0	 0.0	 0.0	 0.0	 0.0	 0.0	 0.0	 0.0	 0.0;
	735	 16.0	 0.0	 0.0	 0.0	 1.002	 100.0	 1	 32.0	 0.0	 0.0	 0.0	 0.0	 0.0	 0.0	 0.0	 0.0	 0.0	 0.0	 0.0	 0.0;
	737	 6.0	 0.0	 0.0	 0.0	 1.064	 100.0	 0	 12.0	 0.0	 0.0	 0.0	 0.0	 0.0	 0.0	 0.0	 0.0	 0.0	 0.0	 0.0	 0.0;
	737	 16.0	 0.0	 0.0	 0.0	 1.064	 100.0	 0	 32.0	 0.0	 0.0	 0.0	 0.0	 0.0	 0.0	 0.0	 0.0	 0.0	 0.0	 0.0	 0.0;
	738	 2.5	 0.0	 0.1	 -0.1	 1.049	 100.0	 0	 5.0	 0.0	 0.0	 0.0	 0.0	 0.0	 0.0	 0.0	 0.0	 0.0	 0.0	 0.0	 0.0;
	745	 3.35	 0.35	 4.4	 -3.7	 0.946	 100.0	 0	 6.7	 0.0	 0.0	 0.0	 0.0	 0.0	 0.0	 0.0	 0.0	 0.0	 0.0	 0.0	 0.0;
	745	 2.8	 1.0	 5.0	 -3.0	 0.946	 100.0	 0	 5.6	 0.0	 0.0	 0.0	 0.0	 0.0	 0.0	 0.0	 0.0	 0.0	 0.0	 0.0	 0.0;
	746	 13.3	 -0.775	 15.0	 -16.55	 0.938	 100.0	 1	 26.6	 0.0	 0.0	 0.0	 0.0	 0.0	 0.0	 0.0	 0.0	 0.0	 0.0	 0.0	 0.0;
	747	 4.0	 0.0	 2.0	 -2.0	 1.009	 100.0	 1	 7.0	 1.0	 0.0	 0.0	 0.0	 0.0	 0.0	 0.0	 0.0	 0.0	 0.0	 0.0	 0.0;
	752	 0.0	 0.0	 3.0	 -3.0	 0.967	 100.0	 0	 5.0	 -5.0	 0.0	 0.0	 0.0	 0.0	 0.0	 0.0	 0.0	 0.0	 0.0	 0.0	 0.0;
	759	 11.75	 0.0	 8.0	 -8.0	 1.072	 100.0	 0	 23.5	 0.0	 0.0	 0.0	 0.0	 0.0	 0.0	 0.0	 0.0	 0.0	 0.0	 0.0	 0.0;
	761	 3.0	 0.0	 0.0	 0.0	 1.036	 100.0	 0	 6.0	 0.0	 0.0	 0.0	 0.0	 0.0	 0.0	 0.0	 0.0	 0.0	 0.0	 0.0	 0.0;
	762	 3.0	 0.0	 0.0	 0.0	 1.034	 100.0	 0	 6.0	 0.0	 0.0	 0.0	 0.0	 0.0	 0.0	 0.0	 0.0	 0.0	 0.0	 0.0	 0.0;
	761	 18.75	 2.0	 10.0	 -6.0	 1.036	 100.0	 1	 37.5	 0.0	 0.0	 0.0	 0.0	 0.0	 0.0	 0.0	 0.0	 0.0	 0.0	 0.0	 0.0;
	762	 18.75	 2.0	 10.0	 -6.0	 1.034	 100.0	 1	 37.5	 0.0	 0.0	 0.0	 0.0	 0.0	 0.0	 0.0	 0.0	 0.0	 0.0	 0.0	 0.0;
	763	 0.3	 0.0	 0.06	 -0.06	 0.601	 100.0	 0	 0.6	 0.0	 0.0	 0.0	 0.0	 0.0	 0.0	 0.0	 0.0	 0.0	 0.0	 0.0	 0.0;
	763	 13.05	 0.0	 2.61	 -2.61	 0.601	 100.0	 0	 26.1	 0.0	 0.0	 0.0	 0.0	 0.0	 0.0	 0.0	 0.0	 0.0	 0.0	 0.0	 0.0;
	763	 0.8	 0.0	 0.16	 -0.16	 0.601	 100.0	 0	 1.6	 0.0	 0.0	 0.0	 0.0	 0.0	 0.0	 0.0	 0.0	 0.0	 0.0	 0.0	 0.0;
	763	 0.55	 0.0	 0.11	 -0.11	 0.601	 100.0	 0	 1.1	 0.0	 0.0	 0.0	 0.0	 0.0	 0.0	 0.0	 0.0	 0.0	 0.0	 0.0	 0.0;
	767	 18.75	 0.0	 0.0	 0.0	 1.018	 100.0	 0	 37.5	 0.0	 0.0	 0.0	 0.0	 0.0	 0.0	 0.0	 0.0	 0.0	 0.0	 0.0	 0.0;
	767	 17.0	 0.0	 0.0	 0.0	 1.018	 100.0	 0	 34.0	 0.0	 0.0	 0.0	 0.0	 0.0	 0.0	 0.0	 0.0	 0.0	 0.0	 0.0	 0.0;
	787	 4.0	 0.0	 26.0	 -26.0	 0.943	 100.0	 0	 8.0	 0.0	 0.0	 0.0	 0.0	 0.0	 0.0	 0.0	 0.0	 0.0	 0.0	 0.0	 0.0;
	787	 7.5	 0.0	 26.0	 -26.0	 0.943	 100.0	 0	 15.0	 0.0	 0.0	 0.0	 0.0	 0.0	 0.0	 0.0	 0.0	 0.0	 0.0	 0.0	 0.0;
	788	 9.5	 0.0	 26.0	 -26.0	 0.97	 100.0	 0	 19.0	 0.0	 0.0	 0.0	 0.0	 0.0	 0.0	 0.0	 0.0	 0.0	 0.0	 0.0	 0.0;
	802	 15.5	 -1.0	 15.0	 -17.0	 1.001	 100.0	 1	 31.0	 0.0	 0.0	 0.0	 0.0	 0.0	 0.0	 0.0	 0.0	 0.0	 0.0	 0.0	 0.0;
	802	 15.5	 -1.0	 15.0	 -17.0	 1.001	 100.0	 1	 31.0	 0.0	 0.0	 0.0	 0.0	 0.0	 0.0	 0.0	 0.0	 0.0	 0.0	 0.0	 0.0;
	803	 15.5	 -1.0	 15.0	 -17.0	 1.003	 100.0	 1	 31.0	 0.0	 0.0	 0.0	 0.0	 0.0	 0.0	 0.0	 0.0	 0.0	 0.0	 0.0	 0.0;
	803	 15.5	 -1.0	 15.0	 -17.0	 1.003	 100.0	 1	 31.0	 0.0	 0.0	 0.0	 0.0	 0.0	 0.0	 0.0	 0.0	 0.0	 0.0	 0.0	 0.0;
	804	 15.5	 -1.0	 15.0	 -17.0	 1.003	 100.0	 1	 31.0	 0.0	 0.0	 0.0	 0.0	 0.0	 0.0	 0.0	 0.0	 0.0	 0.0	 0.0	 0.0;
	804	 15.5	 -1.0	 15.0	 -17.0	 1.003	 100.0	 1	 31.0	 0.0	 0.0	 0.0	 0.0	 0.0	 0.0	 0.0	 0.0	 0.0	 0.0	 0.0	 0.0;
	808	 20.4	 0.0	 0.0	 0.0	 1.042	 100.0	 0	 40.8	 0.0	 0.0	 0.0	 0.0	 0.0	 0.0	 0.0	 0.0	 0.0	 0.0	 0.0	 0.0;
	816	 16.5	 -1.5	 6.0	 -9.0	 1.021	 100.0	 1	 32.0	 1.0	 0.0	 0.0	 0.0	 0.0	 0.0	 0.0	 0.0	 0.0	 0.0	 0.0	 0.0;
	816	 16.5	 -1.5	 6.0	 -9.0	 1.021	 100.0	 0	 32.0	 1.0	 0.0	 0.0	 0.0	 0.0	 0.0	 0.0	 0.0	 0.0	 0.0	 0.0	 0.0;
	817	 16.5	 -1.5	 6.0	 -9.0	 1.02	 100.0	 1	 32.0	 1.0	 0.0	 0.0	 0.0	 0.0	 0.0	 0.0	 0.0	 0.0	 0.0	 0.0	 0.0;
	817	 16.5	 -1.5	 6.0	 -9.0	 1.02	 100.0	 1	 32.0	 1.0	 0.0	 0.0	 0.0	 0.0	 0.0	 0.0	 0.0	 0.0	 0.0	 0.0	 0.0;
	817	 16.5	 -1.5	 6.0	 -9.0	 1.02	 100.0	 1	 32.0	 1.0	 0.0	 0.0	 0.0	 0.0	 0.0	 0.0	 0.0	 0.0	 0.0	 0.0	 0.0;
	817	 16.5	 -1.5	 6.0	 -9.0	 1.02	 100.0	 1	 32.0	 1.0	 0.0	 0.0	 0.0	 0.0	 0.0	 0.0	 0.0	 0.0	 0.0	 0.0	 0.0;
	827	 6.5	 0.0	 3.0	 -3.0	 1.058	 100.0	 0	 13.0	 0.0	 0.0	 0.0	 0.0	 0.0	 0.0	 0.0	 0.0	 0.0	 0.0	 0.0	 0.0;
	827	 3.5	 0.0	 3.0	 -3.0	 1.058	 100.0	 0	 7.0	 0.0	 0.0	 0.0	 0.0	 0.0	 0.0	 0.0	 0.0	 0.0	 0.0	 0.0	 0.0;
	830	 1.2	 0.0	 0.0	 0.0	 1.079	 100.0	 0	 2.4	 0.0	 0.0	 0.0	 0.0	 0.0	 0.0	 0.0	 0.0	 0.0	 0.0	 0.0	 0.0;
	831	 13.5	 0.0	 10.0	 -10.0	 1.068	 100.0	 0	 27.0	 0.0	 0.0	 0.0	 0.0	 0.0	 0.0	 0.0	 0.0	 0.0	 0.0	 0.0	 0.0;
	832	 10.0	 0.0	 10.0	 -10.0	 0.937	 100.0	 0	 20.0	 0.0	 0.0	 0.0	 0.0	 0.0	 0.0	 0.0	 0.0	 0.0	 0.0	 0.0	 0.0;
	834	 4.9	 -0.145	 3.14	 -3.43	 1.063	 100.0	 0	 9.8	 0.0	 0.0	 0.0	 0.0	 0.0	 0.0	 0.0	 0.0	 0.0	 0.0	 0.0	 0.0;
	834	 2.5	 0.5	 1.0	 0.0	 1.063	 100.0	 0	 5.0	 0.0	 0.0	 0.0	 0.0	 0.0	 0.0	 0.0	 0.0	 0.0	 0.0	 0.0	 0.0;
...
];

%% generator cost data
%	2	startup	shutdown	n	c(n-1)	...	c0
mpc.gencost = [
	2	 0.0	 0.0	 3	   0.000000	  45.326166	   0.000000;
	2	 0.0	 0.0	 3	   0.000000	  52.258679	   0.000000;
	2	 0.0	 0.0	 3	   0.000000	  28.080407	   0.000000;
	2	 0.0	 0.0	 3	   0.000000	  37.604391	   0.000000;
	2	 0.0	 0.0	 3	   0.000000	  52.502097	   0.000000;
	2	 0.0	 0.0	 3	   0.000000	  17.680840	   0.000000;
	2	 0.0	 0.0	 3	   0.000000	 154.978035	   0.000000;
	2	 0.0	 0.0	 3	   0.000000	  32.382647	   0.000000;
	2	 0.0	 0.0	 3	   0.000000	  17.773228	   0.000000;
	2	 0.0	 0.0	 3	   0.000000	  55.252846	   0.000000;
	2	 0.0	 0.0	 3	   0.000000	  23.835794	   0.000000;
	2	 0.0	 0.0	 3	   0.000000	  53.349140	   0.000000;
	2	 0.0	 0.0	 3	   0.000000	  34.870603	   0.000000;
	2	 0.0	 0.0	 3	   0.000000	 134.349963	   0.000000;
	2	 0.0	 0.0	 3	   0.000000	 134.589919	   0.000000;
	2	 0.0	 0.0	 3	   0.000000	 160.596349	   0.000000;
	2	 0.0	 0.0	 3	   0.000000	 109.066624	   0.000000;
	2	 0.0	 0.0	 3	   0.000000	  63.352826	   0.000000;
	2	 0.0	 0.0	 3	   0.000000	 123.017826	   0.000000;
	2	 0.0	 0.0	 3	   0.000000	 128.635051	   0.000000;
	2	 0.0	 0.0	 3	   0.000000	  22.829619	   0.000000;
	2	 0.0	 0.0	 3	   0.000000	  47.149353	   0.000000;
	2	 0.0	 0.0	 3	   0.000000	 147.036671	   0.000000;
	2	 0.0	 0.0	 3	   0.000000	  38.075257	   0.000000;
	2	 0.0	 0.0	 3	   0.000000	  63.528497	   0.000000;
	2	 0.0	 0.0	 3	   0.000000	  23.490445	   0.000000;
	2	 0.0	 0.0	 3	   0.000000	  39.278702	   0.000000;
	2	 0.0	 0.0	 3	   0.000000	  48.617067	   0.000000;
	2	 0.0	 0.0	 3	   0.000000	  43.445239	   0.000000;
	2	 0.0	 0.0	 3	   0.000000	 131.661916	   0.000000;
	2	 0.0	 0.0	 3	   0.000000	 133.430994	   0.000000;
	2	 0.0	 0.0	 3	   0.000000	  54.005448	   0.000000;
	2	 0.0	 0.0	 3	   0.000000	  15.747769	   0.000000;
	2	 0.0	 0.0	 3	   0.000000	 114.474224	   0.000000;
	2	 0.0	 0.0	 3	   0.000000	  45.680889	   0.000000;
	2	 0.0	 0.0	 3	   0.000000	  34.054057	   0.000000;
	2	 0.0	 0.0	 3	   0.000000	 131.057320	   0.000000;
	2	 0.0	 0.0	 3	   0.000000	  36.228390	   0.000000;
	2	 0.0	 0.0	 3	   0.000000	 120.093989	   0.000000;
	2	 0.0	 0.0	 3	   0.000000	  60.343638	   0.000000;
	2	 0.0	 0.0	 3	   0.000000	  62.506960	   0.000000;
	2	 0.0	 0.0	 3	   0.000000	 148.478520	   0.000000;
	2	 0.0	 0.0	 3	   0.000000	  51.788608	   0.000000;
	2	 0.0	 0.0	 3	   0.000000	  49.932376	   0.000000;
	2	 0.0	 0.0	 3	   0.000000	  31.504268	   0.000000;
	2	 0.0	 0.0	 3	   0.000000	  29.323128	   0.000000;
	2	 0.0	 0.0	 3	   0.000000	  25.293096	   0.000000;
	2	 0.0	 0.0	 3	   0.000000	 119.996694	   0.000000;
	2	 0.0	 0.0	 3	   0.000000	 118.107113	   0.000000;
	2	 0.0	 0.0	 3	   0.000000	  39.732421	   0.000000;
	2	 0.0	 0.0	 3	   0.000000	  41.796165	   0.000000;
	2	 0.0	 0.0	 3	   0.000000	  63.232197	   0.000000;
	2	 0.0	 0.0	 3	   0.000000	 145.133383	   0.000000;
	2	 0.0	 0.0	 3	   0.000000	  33.980926	   0.000000;
	2	 0.0	 0.0	 3	   0.000000	 127.519842	   0.000000;
	2	 0.0	 0.0	 3	   0.000000	  27.424715	   0.000000;
	2	 0.0	 0.0	 3	   0.000000	 123.863541	   0.000000;
	2	 0.0	 0.0	 3	   0.000000	  36.482605	   0.000000;
	2	 0.0	 0.0	 3	   0.000000	  11.149560	   0.000000;
	2	 0.0	 0.0	 3	   0.000000	  45.022599	   0.000000;
	2	 0.0	 0.0	 3	   0.000000	  31.724570	   0.000000;
	2	 0.0	 0.0	 3	   0.000000	  52.747810	   0.000000;
	2	 0.0	 0.0	 3	   0.000000	 116.601214	   0.000000;
	2	 0.0	 0.0	 3	   0.000000	  38.387414	   0.000000;
	2	 0.0	 0.0	 3	   0.000000	  41.501042	   0.000000;
	2	 0.0	 0.0	 3	   0.000000	  41.145034	   0.000000;
	2	 0.0	 0.0	 3	   0.000000	  56.540771	   0.000000;
	2	 0.0	 0.0	 3	   0.000000	   0.000000	   0.000000;
	2	 0.0	 0.0	 3	   0.000000	   0.000000	   0.000000;
	2	 0.0	 0.0	 3	   0.000000	 122.381519	   0.000000;
	2	 0.0	 0.0	 3	   0.000000	  27.664139	   0.000000;
	2	 0.0	 0.0	 3	   0.000000	  40.939067	   0.000000;
	2	 0.0	 0.0	 3	   0.000000	  47.631457	   0.000000;
	2	 0.0	 0.0	 3	   0.000000	  51.206828	   0.000000;
	2	 0.0	 0.0	 3	   0.000000	  44.555544	   0.000000;
	2	 0.0	 0.0	 3	   0.000000	 121.193676	   0.000000;
	2	 0.0	 0.0	 3	   0.000000	 119.270074	   0.000000;
	2	 0.0	 0.0	 3	   0.000000	  54.743288	   0.000000;
	2	 0.0	 0.0	 3	   0.000000	 122.943580	   0.000000;
	2	 0.0	 0.0	 3	   0.000000	 145.799866	   0.000000;
	2	 0.0	 0.0	 3	   0.000000	  58.803148	   0.000000;
	2	 0.0	 0.0	 3	   0.000000	  29.348648	   0.000000;
	2	 0.0	 0.0	 3	   0.000000	  16.841222	   0.000000;
	2	 0.0	 0.0	 3	   0.000000	 115.223600	   0.000000;
	2	 0.0	 0.0	 3	   0.000000	  59.950556	   0.000000;
	2	 0.0	 0.0	 3	   0.000000	 147.991317	   0.000000;
	2	 0.0	 0.0	 3	   0.000000	 135.434861	   0.000000;
	2	 0.0	 0.0	 3	   0.000000	 142.247974	   0.000000;
	2	 0.0	 0.0	 3	   0.000000	 145.895974	   0.000000;
	2	 0.0	 0.0	 3	   0.000000	 118.853226	   0.000000;
	2	 0.0	 0.0	 3	   0.000000	 146.152363	   0.000000;
	2	 0.0	 0.0	 3	   0.000000	 148.362500	   0.000000;
	2	 0.0	 0.0	 3	   0.000000	  31.100799	   0.000000;
	2	 0.0	 0.0	 3	   0.000000	  57.072578	   0.000000;
	2	 0.0	 0.0	 3	   0.000000	  15.663349	   0.000000;
	2	 0.0	 0.0	 3	   0.000000	  49.818164	   0.000000;
	2	 0.0	 0.0	 3	   0.000000	  42.740591	   0.000000;
	2	 0.0	 0.0	 3	   0.000000	  46.275078	   0.000000;
	2	 0.0	 0.0	 3	   0.000000	  55.148847	   0.000000;
	2	 0.0	 0.0	 3	   0.000000	 126.810576	   0.000000;
	2	 0.0	 0.0	 3	   0.000000	  38.622274	   0.000000;
	2	 0.0	 0.0	 3	   0.000000	  52.141058	   0.000000;
	2	 0.0	 0.0	 3	   0.000000	  32.117135	   0.000000;
	2	 0.0	 0.0	 3	   0.000000	 112.980427	   0.000000;
	2	 0.0	 0.0	 3	   0.000000	 126.203871	   0.000000;
	2	 0.0	 0.0	 3	   0.000000	  24.497988	   0.000000;
	2	 0.0	 0.0	 3	   0.000000	  34.289833	   0.000000;
	2	 0.0	 0.0	 3	   0.000000	 154.957545	   0.000000;
	2	 0.0	 0.0	 3	   0.000000	  52.896299	   0.000000;
	2	 0.0	 0.0	 3	   0.000000	 138.945663	   0.000000;
	2	 0.0	 0.0	 3	   0.000000	  52.366064	   0.000000;
	2	 0.0	 0.0	 3	   0.000000	  46.096340	   0.000000;
	2	 0.0	 0.0	 3	   0.000000	  40.803927	   0.000000;
	2	 0.0	 0.0	 3	   0.000000	  23.846108	   0.000000;
	2	 0.0	 0.0	 3	   0.000000	  49.280553	   0.000000;
	2	 0.0	 0.0	 3	   0.000000	  38.457707	   0.000000;
	2	 0.0	 0.0	 3	   0.000000	  48.355960	   0.000000;
	2	 0.0	 0.0	 3	   0.000000	 154.081803	   0.000000;
	2	 0.0	 0.0	 3	   0.000000	  31.969286	   0.000000;
	2	 0.0	 0.0	 3	   0.000000	  34.454738	   0.000000;
	2	 0.0	 0.0	 3	   0.000000	  49.056555	   0.000000;
	2	 0.0	 0.0	 3	   0.000000	  18.397972	   0.000000;
	2	 0.0	 0.0	 3	   0.000000	  62.022271	   0.000000;
	2	 0.0	 0.0	 3	   0.000000	  40.518960	   0.000000;
	2	 0.0	 0.0	 3	   0.000000	 142.171667	   0.000000;
	2	 0.0	 0.0	 3	   0.000000	  51.011264	   0.000000;
	2	 0.0	 0.0	 3	   0.000000	  36.410218	   0.000000;
	2	 0.0	 0.0	 3	   0.000000	  53.205289	   0.000000;
	2	 0.0	 0.0	 3	   0.000000	  22.187869	   0.000000;
	2	 0.0	 0.0	 3	   0.000000	  50.024955	   0.000000;
	2	 0.0	 0.0	 3	   0.000000	 133.681417	   0.000000;
	2	 0.0	 0.0	 3	   0.000000	  40.473200	   0.000000;
	2	 0.0	 0.0	 3	   0.000000	  44.071562	   0.000000;
	2	 0.0	 0.0	 3	   0.000000	  25.208611	   0.000000;
	2	 0.0	 0.0	 3	   0.000000	 133.847046	   0.000000;
	2	 0.0	 0.0	 3	   0.000000	  17.118426	   0.000000;
	2	 0.0	 0.0	 3	   0.000000	  39.539415	   0.000000;
	2	 0.0	 0.0	 3	   0.000000	  14.155218	   0.000000;
	2	 0.0	 0.0	 3	   0.000000	  49.432702	   0.000000;
	2	 0.0	 0.0	 3	   0.000000	  49.910683	   0.000000;
	2	 0.0	 0.0	 3	   0.000000	  43.680411	   0.000000;
	2	 0.0	 0.0	 3	   0.000000	 142.202873	   0.000000;
	2	 0.0	 0.0	 3	   0.000000	  53.467941	   0.000000;
	2	 0.0	 0.0	 3	   0.000000	  43.008911	   0.000000;
	2	 0.0	 0.0	 3	   0.000000	  61.256253	   0.000000;
	2	 0.0	 0.0	 3	   0.000000	  58.048980	   0.000000;
	2	 0.0	 0.0	 3	   0.000000	  38.576667	   0.000000;
	2	 0.0	 0.0	 3	   0.000000	  39.456117	   0.000000;
	2	 0.0	 0.0	 3	   0.000000	  41.726749	   0.000000;
	2	 0.0	 0.0	 3	   0.000000	  46.800497	   0.000000;
	2	 0.0	 0.0	 3	   0.000000	 108.847189	   0.000000;
	2	 0.0	 0.0	 3	   0.000000	 141.640803	   0.000000;
	2	 0.0	 0.0	 3	   0.000000	  49.289383	   0.000000;
	2	 0.0	 0.0	 3	   0.000000	  44.260447	   0.000000;
	2	 0.0	 0.0	 3	   0.000000	  45.496060	   0.000000;
	2	 0.0	 0.0	 3	   0.000000	 147.418387	   0.000000;
	2	 0.0	 0.0	 3	   0.000000	  38.079658	   0.000000;
	2	 0.0	 0.0	 3	   0.000000	  54.374732	   0.000000;
	2	 0.0	 0.0	 3	   0.000000	  20.584707	   0.000000;
	2	 0.0	 0.0	 3	   0.000000	 117.779256	   0.000000;
	2	 0.0	 0.0	 3	   0.000000	  21.213913	   0.000000;
	2	 0.0	 0.0	 3	   0.000000	  52.988335	   0.000000;
	2	 0.0	 0.0	 3	   0.000000	  40.055020	   0.000000;
	2	 0.0	 0.0	 3	   0.000000	  34.450097	   0.000000;
	2	 0.0	 0.0	 3	   0.000000	 128.080478	   0.000000;
	2	 0.0	 0.0	 3	   0.000000	  51.347893	   0.000000;
	2	 0.0	 0.0	 3	   0.000000	 122.405049	   0.000000;
	2	 0.0	 0.0	 3	   0.000000	  12.392349	   0.000000;
	2	 0.0	 0.0	 3	   0.000000	  65.378512	   0.000000;
	2	 0.0	 0.0	 3	   0.000000	  41.858044	   0.000000;
	2	 0.0	 0.0	 3	   0.000000	  36.512112	   0.000000;
	2	 0.0	 0.0	 3	   0.000000	 144.741277	   0.000000;
	2	 0.0	 0.0	 3	   0.000000	  35.499879	   0.000000;
	2	 0.0	 0.0	 3	   0.000000	 135.769039	   0.000000;
	2	 0.0	 0.0	 3	   0.000000	  48.014847	   0.000000;
	2	 0.0	 0.0	 3	   0.000000	  53.871501	   0.000000;
	2	 0.0	 0.0	 3	   0.000000	  47.905348	   0.000000;
	2	 0.0	 0.0	 3	   0.000000	  25.921676	   0.000000;
	2	 0.0	 0.0	 3	   0.000000	  23.214686	   0.000000;
	2	 0.0	 0.0	 3	   0.000000	  36.437180	   0.000000;
	2	 0.0	 0.0	 3	   0.000000	 129.949204	   0.000000;
	2	 0.0	 0.0	 3	   0.000000	  14.343042	   0.000000;
	2	 0.0	 0.0	 3	   0.000000	  29.027049	   0.000000;
	2	 0.0	 0.0	 3	   0.000000	  35.774483	   0.000000;
	2	 0.0	 0.0	 3	   0.000000	  49.310634	   0.000000;
	2	 0.0	 0.0	 3	   0.000000	  62.039434	   0.000000;
	2	 0.0	 0.0	 3	   0.000000	  36.921514	   0.000000;
	2	 0.0	 0.0	 3	   0.000000	  32.827959	   0.000000;
	2	 0.0	 0.0	 3	   0.000000	  68.789725	   0.000000;
	2	 0.0	 0.0	 3	   0.000000	 132.669847	   0.000000;
	2	 0.0	 0.0	 3	   0.000000	  42.184063	   0.000000;
	2	 0.0	 0.0	 3	   0.000000	  32.693890	   0.000000;
	2	 0.0	 0.0	 3	   0.000000	  20.026175	   0.000000;
	2	 0.0	 0.0	 3	   0.000000	  36.057793	   0.000000;
	2	 0.0	 0.0	 3	   0.000000	  32.653910	   0.000000;
	2	 0.0	 0.0	 3	   0.000000	 151.040793	   0.000000;
	2	 0.0	 0.0	 3	   0.000000	 148.420253	   0.000000;
	2	 0.0	 0.0	 3	   0.000000	  40.259727	   0.000000;
	2	 0.0	 0.0	 3	   0.000000	 123.407017	   0.000000;
	2	 0.0	 0.0	 3	   0.000000	  37.022079	   0.000000;
...
];

%% branch data
%	fbus	tbus	r	x	b	rateA	rateB	rateC	ratio	angle	status	angmin	angmax
mpc.branch = [
	4667	 1	 0.005726	 0.010482	 0.0	 2186.0	 2186.0	 2186.0	 1.0	 0.0	 1	 -21.65216	 21.65216;
	5273	 1	 0.01284	 0.025679	 0.0	 910.0	 910.0	 910.0	 1.0	 0.0	 1	 -21.65216	 21.65216;
	1689	 2	 0.005799	 0.010615	 0.0075	 2441.0	 2441.0	 2441.0	 1.0	 0.0	 1	 -21.65216	 21.65216;
	1680	 3	 0.134039	 0.309398	 0.0035	 91.0	 91.0	 91.0	 1.0	 0.0	 1	 -21.65216	 21.65216;
	2311	 3	 0.049131	 0.133283	 0.0015	 215.0	 215.0	 215.0	 1.0	 0.0	 1	 -21.65216	 21.65216;
	696	 4	 0.025926	 0.109136	 0.0002	 281.0	 281.0	 281.0	 1.0	 0.0	 1	 -21.65216	 21.65216;
	3961	 4	 0.05	 0.126914	 0.0006	 226.0	 226.0	 226.0	 1.0	 0.0	 1	 -21.65216	 21.65216;
	5073	 4	 0.02321	 0.097407	 0.0016	 315.0	 315.0	 315.0	 1.0	 0.0	 1	 -21.65216	 21.65216;
	4437	 5	 0.040564	 0.113631	 0.0013	 245.0	 245.0	 245.0	 1.0	 0.0	 1	 -21.65216	 21.65216;
	2789	 6	 0.006047	 0.020912	 0.0222	 1398.0	 1398.0	 1398.0	 1.0	 0.0	 1	 -21.65216	 21.65216;
	2790	 7	 0.012472	 0.032099	 0.0061	 884.0	 884.0	 884.0	 1.0	 0.0	 1	 -21.65216	 21.65216;
	2477	 8	 0.002607	 0.017462	 0.0324	 540.0	 540.0	 540.0	 1.0	 0.0	 1	 -21.65216	 21.65216;
	473	 9	 0.053893	 0.14258	 0.0017	 194.0	 194.0	 194.0	 1.0	 0.0	 1	 -21.65216	 21.65216;
	11	 10	 0.000247	 0.001235	 0.0005	 24078.0	 24078.0	 24078.0	 1.0	 0.0	 1	 -21.65216	 21.65216;
	11	 10	 0.000247	 0.001235	 0.0002	 24078.0	 24078.0	 24078.0	 1.0	 0.0	 1	 -21.65216	 21.65216;
	30	 11	 0.039753	 0.100988	 0.0047	 284.0	 284.0	 284.0	 1.0	 0.0	 1	 -21.65216	 21.65216;
	2945	 11	 0.037654	 0.096173	 0.001	 294.0	 294.0	 294.0	 1.0	 0.0	 1	 -21.65216	 21.65216;
	2189	 12	 0.014613	 0.060721	 0.0008	 487.0	 487.0	 487.0	 1.0	 0.0	 1	 -21.65216	 21.65216;
	4039	 12	 0.034064	 0.121139	 0.0015	 242.0	 242.0	 242.0	 1.0	 0.0	 1	 -21.65216	 21.65216;
	4041	 12	 0.000242	 0.000442	 0.0004	 60355.0	 60355.0	 60355.0	 1.0	 0.0	 1	 -21.65216	 21.65216;
	115	 13	 2.1e-05	 0.000125	 0.1386	 737.0	 737.0	 737.0	 1.0	 0.0	 1	 -21.65216	 21.65216;
	2345	 13	 0.000145	 0.001877	 0.0635	 2487.0	 2487.0	 2487.0	 1.0	 0.0	 1	 -21.65216	 21.65216;
	4597	 13	 0.000319	 0.003234	 0.0838	 1841.0	 1841.0	 1841.0	 1.0	 0.0	 1	 -21.65216	 21.65216;
	116	 13	 2.1e-05	 0.000125	 0.1386	 737.0	 737.0	 737.0	 1.0	 0.0	 1	 -21.65216	 21.65216;
	1229	 14	 0.04	 0.134198	 0.0274	 217.0	 217.0	 217.0	 1.0	 0.0	 1	 -21.65216	 21.65216;
	2887	 14	 0.012222	 0.052346	 0.0026	 565.0	 565.0	 565.0	 1.0	 0.0	 1	 -21.65216	 21.65216;
	4615	 14	 0.007284	 0.045432	 0.0024	 660.0	 660.0	 660.0	 1.0	 0.0	 1	 -21.65216	 21.65216;
	4976	 14	 0.059963	 0.154222	 0.0236	 184.0	 184.0	 184.0	 1.0	 0.0	 1	 -21.65216	 21.65216;
	5259	 14	 0.018025	 0.110988	 0.0073	 270.0	 270.0	 270.0	 1.0	 0.0	 1	 -21.65216	 21.65216;
	2887	 14	 0.012222	 0.052593	 0.0032	 562.0	 562.0	 562.0	 1.0	 0.0	 1	 -21.65216	 21.65216;
	4615	 14	 0.007284	 0.044938	 0.0024	 667.0	 667.0	 667.0	 1.0	 0.0	 1	 -21.65216	 21.65216;
	2921	 15	 0.037541	 0.100529	 0.0011	 284.0	 284.0	 284.0	 1.0	 0.0	 1	 -21.65216	 21.65216;
	4150	 15	 0.090199	 0.211388	 0.0023	 133.0	 133.0	 133.0	 1.0	 0.0	 1	 -21.65216	 21.65216;
	4477	 15	 0.09801	 0.267574	 0.0	 107.0	 107.0	 107.0	 1.0	 0.0	 1	 -21.65216	 21.65216;
	252	 16	 0.071806	 0.191484	 0.0019	 149.0	 149.0	 149.0	 1.0	 0.0	 1	 -21.65216	 21.65216;
	340	 16	 0.119174	 0.284958	 0.0044	 99.0	 99.0	 99.0	 1.0	 0.0	 1	 -21.65216	 21.65216;
	5865	 17	 0.022346	 0.061111	 0.0029	 457.0	 457.0	 457.0	 1.0	 0.0	 1	 -21.65216	 21.65216;
	3747	 18	 0.009383	 0.019753	 0.0	 1194.0	 1194.0	 1194.0	 1.0	 0.0	 1	 -21.65216	 21.65216;
	5121	 19	 0.000252	 0.000504	 0.0	 52398.0	 52398.0	 52398.0	 1.0	 0.0	 1	 -21.65216	 21.65216;
	3747	 20	 0.001975	 0.004444	 0.0	 5369.0	 5369.0	 5369.0	 1.0	 0.0	 1	 -21.65216	 21.65216;
	1359	 21	 0.036296	 0.099012	 0.0045	 282.0	 282.0	 282.0	 1.0	 0.0	 1	 -21.65216	 21.65216;
	1605	 21	 0.032716	 0.089136	 0.0057	 313.0	 313.0	 313.0	 1.0	 0.0	 1	 -21.65216	 21.65216;
	1849	 22	 0.138574	 0.351474	 0.0058	 81.0	 81.0	 81.0	 1.0	 0.0	 1	 -21.65216	 21.65216;
	5050	 22	 0.094407	 0.210456	 0.0044	 132.0	 132.0	 132.0	 1.0	 0.0	 1	 -21.65216	 21.65216;
	1161	 23	 0.047115	 0.117158	 0.001	 234.0	 234.0	 234.0	 1.0	 0.0	 1	 -21.65216	 21.65216;
	2713	 23	 0.039557	 0.120937	 0.0132	 233.0	 233.0	 233.0	 1.0	 0.0	 1	 -21.65216	 21.65216;
	3443	 23	 0.022676	 0.062484	 0.0007	 445.0	 445.0	 445.0	 1.0	 0.0	 1	 -21.65216	 21.65216;
	145	 24	 0.064568	 0.16716	 0.0113	 180.0	 180.0	 180.0	 1.0	 0.0	 1	 -21.65216	 21.65216;
	1287	 24	 0.048605	 0.128481	 0.0062	 235.0	 235.0	 235.0	 1.0	 0.0	 1	 -21.65216	 21.65216;
	493	 25	 0.004815	 0.02963	 0.0016	 1049.0	 1049.0	 1049.0	 1.0	 0.0	 1	 -21.65216	 21.65216;
	2101	 25	 0.007309	 0.04463	 0.0073	 710.0	 710.0	 710.0	 1.0	 0.0	 1	 -21.65216	 21.65216;
	613	 26	 0.034321	 0.145802	 0.0073	 199.0	 199.0	 199.0	 1.0	 0.0	 1	 -21.65216	 21.65216;
	1872	 26	 0.004815	 0.009753	 0.0005	 2731.0	 2731.0	 2731.0	 1.0	 0.0	 1	 -21.65216	 21.65216;
	2613	 26	 0.049012	 0.133704	 0.0063	 209.0	 209.0	 209.0	 1.0	 0.0	 1	 -21.65216	 21.65216;
	2938	 26	 0.04642	 0.126543	 0.0058	 221.0	 221.0	 221.0	 1.0	 0.0	 1	 -21.65216	 21.65216;
	3357	 26	 0.046296	 0.125926	 0.006	 222.0	 222.0	 222.0	 1.0	 0.0	 1	 -21.65216	 21.65216;
	4652	 26	 0.053704	 0.136753	 0.0065	 203.0	 203.0	 203.0	 1.0	 0.0	 1	 -21.65216	 21.65216;
	2938	 26	 0.03358	 0.120988	 0.0062	 237.0	 237.0	 237.0	 1.0	 0.0	 1	 -21.65216	 21.65216;
	536	 27	 0.006163	 0.041067	 0.0759	 446.0	 446.0	 446.0	 1.0	 0.0	 1	 -21.65216	 21.65216;
	2358	 27	 0.000652	 0.004369	 0.0081	 558.0	 558.0	 558.0	 1.0	 0.0	 1	 -21.65216	 21.65216;
	2694	 28	 0.050945	 0.131922	 0.0015	 216.0	 216.0	 216.0	 1.0	 0.0	 1	 -21.65216	 21.65216;
	3913	 28	 0.058781	 0.149005	 0.0017	 190.0	 190.0	 190.0	 1.0	 0.0	 1	 -21.65216	 21.65216;
	2900	 29	 0.067019	 0.137566	 0.0037	 193.0	 193.0	 193.0	 1.0	 0.0	 1	 -21.65216	 21.65216;
	3339	 29	 0.032754	 0.088939	 0.0039	 312.0	 312.0	 312.0	 1.0	 0.0	 1	 -21.65216	 21.65216;
	3339	 29	 0.030184	 0.080096	 0.0053	 345.0	 345.0	 345.0	 1.0	 0.0	 1	 -21.65216	 21.65216;
	145	 30	 0.066049	 0.187778	 0.0099	 161.0	 161.0	 161.0	 1.0	 0.0	 1	 -21.65216	 21.65216;
	1559	 30	 0.065062	 0.133704	 0.0062	 212.0	 212.0	 212.0	 1.0	 0.0	 1	 -21.65216	 21.65216;
	4861	 30	 0.041728	 0.106049	 0.005	 281.0	 281.0	 281.0	 1.0	 0.0	 1	 -21.65216	 21.65216;
	151	 31	 0.009574	 0.03875	 0.0114	 740.0	 740.0	 740.0	 1.0	 0.0	 1	 -21.65216	 21.65216;
	3180	 31	 0.000171	 0.000313	 0.0002	 82782.0	 82782.0	 82782.0	 1.0	 0.0	 1	 -21.65216	 21.65216;
	3712	 31	 0.034266	 0.09423	 0.001	 295.0	 295.0	 295.0	 1.0	 0.0	 1	 -21.65216	 21.65216;
	4763	 31	 0.006803	 0.028219	 0.0	 1018.0	 1018.0	 1018.0	 1.0	 0.0	 1	 -21.65216	 21.65216;
	151	 31	 0.008566	 0.037541	 0.0121	 767.0	 767.0	 767.0	 1.0	 0.0	 1	 -21.65216	 21.65216;
	3749	 32	 0.009733	 0.034089	 0.0185	 902.0	 902.0	 902.0	 1.0	 0.0	 1	 -21.65216	 21.65216;
	369	 34	 0.000277	 0.002015	 0.003	 15218.0	 15218.0	 15218.0	 1.0	 0.0	 1	 -21.65216	 21.65216;
	1020	 33	 0.00881	 0.033995	 0.0607	 882.0	 882.0	 882.0	 1.0	 0.0	 1	 -21.65216	 21.65216;
	1162	 33	 0.004642	 0.019832	 0.0354	 1520.0	 1520.0	 1520.0	 1.0	 0.0	 1	 -21.65216	 21.65216;
	2591	 34	 0.008861	 0.03506	 0.0623	 856.0	 856.0	 856.0	 1.0	 0.0	 1	 -21.65216	 21.65216;
	2714	 34	 0.006993	 0.032869	 0.0557	 922.0	 922.0	 922.0	 1.0	 0.0	 1	 -21.65216	 21.65216;
	4768	 33	 0.002173	 0.008731	 0.0152	 3441.0	 3441.0	 3441.0	 1.0	 0.0	 1	 -21.65216	 21.65216;
	4878	 34	 0.00077	 0.003121	 0.0051	 9629.0	 9629.0	 9629.0	 1.0	 0.0	 1	 -21.65216	 21.65216;
	5700	 33	 0.004109	 0.016138	 0.0284	 1859.0	 1859.0	 1859.0	 1.0	 0.0	 1	 -21.65216	 21.65216;
	371	 35	 8.3e-05	 0.000907	 0.0202	 1034.0	 1034.0	 1034.0	 1.0	 0.0	 1	 -21.65216	 21.65216;
	1114	 35	 0.000552	 0.006726	 0.0939	 1786.0	 1786.0	 1786.0	 1.0	 0.0	 1	 -21.65216	 21.65216;
	2158	 35	 0.000512	 0.008012	 0.2455	 2462.0	 2462.0	 2462.0	 1.0	 0.0	 1	 -21.65216	 21.65216;
	3153	 35	 0.001107	 0.00918	 0.1906	 1644.0	 1644.0	 1644.0	 1.0	 0.0	 1	 -21.65216	 21.65216;
	370	 36	 6.2e-05	 0.000741	 0.0173	 1095.0	 1095.0	 1095.0	 1.0	 0.0	 1	 -21.65216	 21.65216;
	2158	 35	 0.000512	 0.008019	 0.2455	 2462.0	 2462.0	 2462.0	 1.0	 0.0	 1	 -21.65216	 21.65216;
...